@<TRIPOS>MOLECULE
*****
 68 75 0 0 0
SMALL
GASTEIGER

@<TRIPOS>ATOM
      1 O           0.0000    0.0000    0.0000 O.2     1  UNL1        0.0000
      2 C           0.0000    0.0000    0.0000 C.2     1  UNL1        0.0000
      3 N           0.0000    0.0000    0.0000 N.am    1  UNL1        0.0000
      4 C           0.0000    0.0000    0.0000 C.3     1  UNL1        0.0000
      5 C           0.0000    0.0000    0.0000 C.3     1  UNL1        0.0000
      6 C           0.0000    0.0000    0.0000 C.3     1  UNL1        0.0000
      7 C           0.0000    0.0000    0.0000 C.3     1  UNL1        0.0000
      8 C           0.0000    0.0000    0.0000 C.ar    1  UNL1        0.0000
      9 C           0.0000    0.0000    0.0000 C.ar    1  UNL1        0.0000
     10 C           0.0000    0.0000    0.0000 C.ar    1  UNL1        0.0000
     11 N           0.0000    0.0000    0.0000 N.ar    1  UNL1        0.0000
     12 C           0.0000    0.0000    0.0000 C.ar    1  UNL1        0.0000
     13 C           0.0000    0.0000    0.0000 C.ar    1  UNL1        0.0000
     14 C           0.0000    0.0000    0.0000 C.ar    1  UNL1        0.0000
     15 C           0.0000    0.0000    0.0000 C.ar    1  UNL1        0.0000
     16 C           0.0000    0.0000    0.0000 C.ar    1  UNL1        0.0000
     17 C           0.0000    0.0000    0.0000 C.ar    1  UNL1        0.0000
     18 N           0.0000    0.0000    0.0000 N.ar    1  UNL1        0.0000
     19 C           0.0000    0.0000    0.0000 C.ar    1  UNL1        0.0000
     20 C           0.0000    0.0000    0.0000 C.ar    1  UNL1        0.0000
     21 N           0.0000    0.0000    0.0000 N.ar    1  UNL1        0.0000
     22 C           0.0000    0.0000    0.0000 C.ar    1  UNL1        0.0000
     23 C           0.0000    0.0000    0.0000 C.3     1  UNL1        0.0000
     24 C           0.0000    0.0000    0.0000 C.3     1  UNL1        0.0000
     25 C           0.0000    0.0000    0.0000 C.3     1  UNL1        0.0000
     26 C           0.0000    0.0000    0.0000 C.3     1  UNL1        0.0000
     27 C           0.0000    0.0000    0.0000 C.3     1  UNL1        0.0000
     28 C           0.0000    0.0000    0.0000 C.3     1  UNL1        0.0000
     29 C           0.0000    0.0000    0.0000 C.3     1  UNL1        0.0000
     30 C           0.0000    0.0000    0.0000 C.3     1  UNL1        0.0000
     31 C           0.0000    0.0000    0.0000 C.ar    1  UNL1        0.0000
     32 N           0.0000    0.0000    0.0000 N.ar    1  UNL1        0.0000
     33 N           0.0000    0.0000    0.0000 N.ar    1  UNL1        0.0000
     34 C           0.0000    0.0000    0.0000 C.ar    1  UNL1        0.0000
     35 C           0.0000    0.0000    0.0000 C.ar    1  UNL1        0.0000
     36 H          -0.8037   -0.7716    0.5053 H       1  UNL1        0.0000
     37 H           0.3510   -1.1693    0.4213 H       1  UNL1        0.0000
     38 H           0.0341    1.0106    0.7834 H       1  UNL1        0.0000
     39 H          -0.2622   -0.5834   -1.2242 H       1  UNL1        0.0000
     40 H          -0.7064    0.0568    1.0334 H       1  UNL1        0.0000
     41 H           1.0902   -0.2835    0.4778 H       1  UNL1        0.0000
     42 H          -1.2116   -0.0881   -0.2867 H       1  UNL1        0.0000
     43 H          -0.2293    0.1854   -1.3019 H       1  UNL1        0.0000
     44 H           0.9404    0.9360   -0.2703 H       1  UNL1        0.0000
     45 H           0.8752   -0.8644   -0.0722 H       1  UNL1        0.0000
     46 H          -1.2040    0.7197   -0.1820 H       1  UNL1        0.0000
     47 H           0.5083   -0.0156   -1.1093 H       1  UNL1        0.0000
     48 H           1.1084    0.1371   -0.4687 H       1  UNL1        0.0000
     49 H          -0.0269    0.3825    1.2038 H       1  UNL1        0.0000
     50 H          -0.0958   -0.7480    0.9365 H       1  UNL1        0.0000
     51 H          -0.8783   -0.8021   -0.3388 H       1  UNL1        0.0000
     52 H           0.1321    1.4230    0.1510 H       1  UNL1        0.0000
     53 H           0.2135   -1.0357   -0.5689 H       1  UNL1        0.0000
     54 H          -0.8188    0.5499   -0.8232 H       1  UNL1        0.0000
     55 H           0.3284   -0.8937   -0.8683 H       1  UNL1        0.0000
     56 H           0.8151    0.4194    0.9140 H       1  UNL1        0.0000
     57 H           1.0171   -0.5506   -0.7896 H       1  UNL1        0.0000
     58 H          -0.8822   -0.2147   -0.9753 H       1  UNL1        0.0000
     59 H           0.5219   -0.2787    1.0738 H       1  UNL1        0.0000
     60 H          -0.5358    1.0707   -0.0190 H       1  UNL1        0.0000
     61 H           0.7715    0.7036   -0.9826 H       1  UNL1        0.0000
     62 H          -0.1312    0.8475   -0.9587 H       1  UNL1        0.0000
     63 H           0.3139    1.2739   -0.5626 H       1  UNL1        0.0000
     64 H           1.2930    0.4378    0.2250 H       1  UNL1        0.0000
     65 H          -0.3235   -1.2361    0.0134 H       1  UNL1        0.0000
     66 H          -1.1105    0.2391    0.4178 H       1  UNL1        0.0000
     67 H           0.7596    1.0325    0.4603 H       1  UNL1        0.0000
     68 EU          0.0000    0.0000    0.0000 Eu      1  UNL1        0.0000
@<TRIPOS>BOND
     1     1     2    2
     2     2     3   am
     3     3     4    1
     4     3     5    1
     5     5     6    1
     6     6     7    1
     7     2     8    1
     8     8     9   ar
     9     9    10   ar
    10     8    11   ar
    11    11    12   ar
    12    12    13   ar
    13    10    13   ar
    14    13    14   ar
    15    14    15   ar
    16    15    16   ar
    17    16    17   ar
    18    12    17   ar
    19    17    18   ar
    20    18    19   ar
    21    19    20    1
    22    20    21   ar
    23    21    22   ar
    24    22    23    1
    25    23    24    1
    26    23    25    1
    27    23    26    1
    28    26    27    1
    29    27    28    1
    30    28    29    1
    31    28    30    1
    32    22    31   ar
    33    28    31    1
    34    31    32   ar
    35    32    33   ar
    36    20    33   ar
    37    19    34   ar
    38    34    35   ar
    39    16    35   ar
    40     4    36    1
    41     4    37    1
    42     4    38    1
    43     5    39    1
    44     5    40    1
    45     6    41    1
    46     6    42    1
    47     7    43    1
    48     7    44    1
    49     7    45    1
    50     9    46    1
    51    10    47    1
    52    14    48    1
    53    15    49    1
    54    24    50    1
    55    24    51    1
    56    24    52    1
    57    25    53    1
    58    25    54    1
    59    25    55    1
    60    26    56    1
    61    26    57    1
    62    27    58    1
    63    27    59    1
    64    29    60    1
    65    29    61    1
    66    29    62    1
    67    30    63    1
    68    30    64    1
    69    30    65    1
    70    34    66    1
    71    35    67    1
    72    68     1    1
    73    68    33    1
    74    68    18    1
    75    68    11    1
@<TRIPOS>MOLECULE
*****
 68 75 0 0 0
SMALL
GASTEIGER

@<TRIPOS>ATOM
      1 O           0.0000    0.0000    0.0000 O.2     1  UNL1        0.0000
      2 C           0.0000    0.0000    0.0000 C.2     1  UNL1        0.0000
      3 N           0.0000    0.0000    0.0000 N.am    1  UNL1        0.0000
      4 C           0.0000    0.0000    0.0000 C.3     1  UNL1        0.0000
      5 C           0.0000    0.0000    0.0000 C.3     1  UNL1        0.0000
      6 C           0.0000    0.0000    0.0000 C.3     1  UNL1        0.0000
      7 C           0.0000    0.0000    0.0000 C.3     1  UNL1        0.0000
      8 C           0.0000    0.0000    0.0000 C.ar    1  UNL1        0.0000
      9 C           0.0000    0.0000    0.0000 C.ar    1  UNL1        0.0000
     10 C           0.0000    0.0000    0.0000 C.ar    1  UNL1        0.0000
     11 N           0.0000    0.0000    0.0000 N.ar    1  UNL1        0.0000
     12 C           0.0000    0.0000    0.0000 C.ar    1  UNL1        0.0000
     13 C           0.0000    0.0000    0.0000 C.ar    1  UNL1        0.0000
     14 C           0.0000    0.0000    0.0000 C.ar    1  UNL1        0.0000
     15 C           0.0000    0.0000    0.0000 C.ar    1  UNL1        0.0000
     16 C           0.0000    0.0000    0.0000 C.ar    1  UNL1        0.0000
     17 C           0.0000    0.0000    0.0000 C.ar    1  UNL1        0.0000
     18 N           0.0000    0.0000    0.0000 N.ar    1  UNL1        0.0000
     19 C           0.0000    0.0000    0.0000 C.ar    1  UNL1        0.0000
     20 C           0.0000    0.0000    0.0000 C.ar    1  UNL1        0.0000
     21 N           0.0000    0.0000    0.0000 N.ar    1  UNL1        0.0000
     22 C           0.0000    0.0000    0.0000 C.ar    1  UNL1        0.0000
     23 C           0.0000    0.0000    0.0000 C.3     1  UNL1        0.0000
     24 C           0.0000    0.0000    0.0000 C.3     1  UNL1        0.0000
     25 C           0.0000    0.0000    0.0000 C.3     1  UNL1        0.0000
     26 C           0.0000    0.0000    0.0000 C.3     1  UNL1        0.0000
     27 C           0.0000    0.0000    0.0000 C.3     1  UNL1        0.0000
     28 C           0.0000    0.0000    0.0000 C.3     1  UNL1        0.0000
     29 C           0.0000    0.0000    0.0000 C.3     1  UNL1        0.0000
     30 C           0.0000    0.0000    0.0000 C.3     1  UNL1        0.0000
     31 C           0.0000    0.0000    0.0000 C.ar    1  UNL1        0.0000
     32 N           0.0000    0.0000    0.0000 N.ar    1  UNL1        0.0000
     33 N           0.0000    0.0000    0.0000 N.ar    1  UNL1        0.0000
     34 C           0.0000    0.0000    0.0000 C.ar    1  UNL1        0.0000
     35 C           0.0000    0.0000    0.0000 C.ar    1  UNL1        0.0000
     36 H          -1.1819   -0.9267    0.6324 H       1  UNL1        0.0000
     37 H           0.5120   -1.4661    0.6580 H       1  UNL1        0.0000
     38 H          -0.1709    1.2460    1.0371 H       1  UNL1        0.0000
     39 H          -0.3266   -0.8627   -1.5723 H       1  UNL1        0.0000
     40 H          -0.8928   -0.0964    1.4291 H       1  UNL1        0.0000
     41 H           1.4417   -0.4530    0.6625 H       1  UNL1        0.0000
     42 H          -1.6345   -0.1446   -0.2869 H       1  UNL1        0.0000
     43 H          -0.3553    0.2094   -1.7651 H       1  UNL1        0.0000
     44 H           1.2500    1.1867   -0.3619 H       1  UNL1        0.0000
     45 H           1.2124   -1.1582   -0.1000 H       1  UNL1        0.0000
     46 H          -1.6845    0.9842   -0.1815 H       1  UNL1        0.0000
     47 H           0.6247   -0.1732   -1.4789 H       1  UNL1        0.0000
     48 H           1.4735    0.1531   -0.6249 H       1  UNL1        0.0000
     49 H           0.0355    0.3852    1.6570 H       1  UNL1        0.0000
     50 H          -0.2765   -1.0125    1.2866 H       1  UNL1        0.0000
     51 H          -1.1204   -1.1066   -0.5232 H       1  UNL1        0.0000
     52 H           0.1397    1.9606    0.2816 H       1  UNL1        0.0000
     53 H           0.3118   -1.3619   -0.8013 H       1  UNL1        0.0000
     54 H          -1.0880    0.7315   -1.0352 H       1  UNL1        0.0000
     55 H           0.3911   -1.2993   -0.8823 H       1  UNL1        0.0000
     56 H           1.0446    0.4835    1.2549 H       1  UNL1        0.0000
     57 H           1.4049   -0.8026   -1.0954 H       1  UNL1        0.0000
     58 H          -1.2082   -0.3189   -1.2759 H       1  UNL1        0.0000
     59 H           0.6795   -0.5269    1.4469 H       1  UNL1        0.0000
     60 H          -0.7089    1.4135   -0.0651 H       1  UNL1        0.0000
     61 H           0.7982    0.8797   -1.3123 H       1  UNL1        0.0000
     62 H          -0.0884    1.0786   -1.2370 H       1  UNL1        0.0000
     63 H           0.4413    1.7917   -0.7149 H       1  UNL1        0.0000
     64 H           1.7182    0.5466    0.3760 H       1  UNL1        0.0000
     65 H          -0.3983   -1.6359    0.0745 H       1  UNL1        0.0000
     66 H          -1.4516    0.3678    0.6660 H       1  UNL1        0.0000
     67 H           0.9328    1.3490    0.6551 H       1  UNL1        0.0000
     68 EU          0.0000    0.0000    0.0000 Eu      1  UNL1        0.0000
@<TRIPOS>BOND
     1     1     2    2
     2     2     3   am
     3     3     4    1
     4     3     5    1
     5     5     6    1
     6     6     7    1
     7     2     8    1
     8     8     9   ar
     9     9    10   ar
    10     8    11   ar
    11    11    12   ar
    12    12    13   ar
    13    10    13   ar
    14    13    14   ar
    15    14    15   ar
    16    15    16   ar
    17    16    17   ar
    18    12    17   ar
    19    17    18   ar
    20    18    19   ar
    21    19    20    1
    22    20    21   ar
    23    21    22   ar
    24    22    23    1
    25    23    24    1
    26    23    25    1
    27    23    26    1
    28    26    27    1
    29    27    28    1
    30    28    29    1
    31    28    30    1
    32    22    31   ar
    33    28    31    1
    34    31    32   ar
    35    32    33   ar
    36    20    33   ar
    37    19    34   ar
    38    34    35   ar
    39    16    35   ar
    40     4    36    1
    41     4    37    1
    42     4    38    1
    43     5    39    1
    44     5    40    1
    45     6    41    1
    46     6    42    1
    47     7    43    1
    48     7    44    1
    49     7    45    1
    50     9    46    1
    51    10    47    1
    52    14    48    1
    53    15    49    1
    54    24    50    1
    55    24    51    1
    56    24    52    1
    57    25    53    1
    58    25    54    1
    59    25    55    1
    60    26    56    1
    61    26    57    1
    62    27    58    1
    63    27    59    1
    64    29    60    1
    65    29    61    1
    66    29    62    1
    67    30    63    1
    68    30    64    1
    69    30    65    1
    70    34    66    1
    71    35    67    1
    72    68     1    1
    73    68    33    1
    74    68    18    1
    75    68    11    1
@<TRIPOS>MOLECULE
*****
 68 75 0 0 0
SMALL
GASTEIGER

@<TRIPOS>ATOM
      1 O           0.0000    0.0000    0.0000 O.2     1  UNL1        0.0000
      2 C           0.0000    0.0000    0.0000 C.2     1  UNL1        0.0000
      3 N           0.0000    0.0000    0.0000 N.am    1  UNL1        0.0000
      4 C           0.0000    0.0000    0.0000 C.3     1  UNL1        0.0000
      5 C           0.0000    0.0000    0.0000 C.3     1  UNL1        0.0000
      6 C           0.0000    0.0000    0.0000 C.3     1  UNL1        0.0000
      7 C           0.0000    0.0000    0.0000 C.3     1  UNL1        0.0000
      8 C           0.0000    0.0000    0.0000 C.ar    1  UNL1        0.0000
      9 C           0.0000    0.0000    0.0000 C.ar    1  UNL1        0.0000
     10 C           0.0000    0.0000    0.0000 C.ar    1  UNL1        0.0000
     11 N           0.0000    0.0000    0.0000 N.ar    1  UNL1        0.0000
     12 C           0.0000    0.0000    0.0000 C.ar    1  UNL1        0.0000
     13 C           0.0000    0.0000    0.0000 C.ar    1  UNL1        0.0000
     14 C           0.0000    0.0000    0.0000 C.ar    1  UNL1        0.0000
     15 C           0.0000    0.0000    0.0000 C.ar    1  UNL1        0.0000
     16 C           0.0000    0.0000    0.0000 C.ar    1  UNL1        0.0000
     17 C           0.0000    0.0000    0.0000 C.ar    1  UNL1        0.0000
     18 N           0.0000    0.0000    0.0000 N.ar    1  UNL1        0.0000
     19 C           0.0000    0.0000    0.0000 C.ar    1  UNL1        0.0000
     20 C           0.0000    0.0000    0.0000 C.ar    1  UNL1        0.0000
     21 N           0.0000    0.0000    0.0000 N.ar    1  UNL1        0.0000
     22 C           0.0000    0.0000    0.0000 C.ar    1  UNL1        0.0000
     23 C           0.0000    0.0000    0.0000 C.3     1  UNL1        0.0000
     24 C           0.0000    0.0000    0.0000 C.3     1  UNL1        0.0000
     25 C           0.0000    0.0000    0.0000 C.3     1  UNL1        0.0000
     26 C           0.0000    0.0000    0.0000 C.3     1  UNL1        0.0000
     27 C           0.0000    0.0000    0.0000 C.3     1  UNL1        0.0000
     28 C           0.0000    0.0000    0.0000 C.3     1  UNL1        0.0000
     29 C           0.0000    0.0000    0.0000 C.3     1  UNL1        0.0000
     30 C           0.0000    0.0000    0.0000 C.3     1  UNL1        0.0000
     31 C           0.0000    0.0000    0.0000 C.ar    1  UNL1        0.0000
     32 N           0.0000    0.0000    0.0000 N.ar    1  UNL1        0.0000
     33 N           0.0000    0.0000    0.0000 N.ar    1  UNL1        0.0000
     34 C           0.0000    0.0000    0.0000 C.ar    1  UNL1        0.0000
     35 C           0.0000    0.0000    0.0000 C.ar    1  UNL1        0.0000
     36 H          -1.5583   -1.1220    0.7520 H       1  UNL1        0.0000
     37 H           0.6950   -1.8036    0.8719 H       1  UNL1        0.0000
     38 H          -0.3870    1.5098    1.3125 H       1  UNL1        0.0000
     39 H          -0.4311   -1.1073   -1.9061 H       1  UNL1        0.0000
     40 H          -1.1261   -0.1820    1.8277 H       1  UNL1        0.0000
     41 H           1.8141   -0.5989    0.8681 H       1  UNL1        0.0000
     42 H          -2.0459   -0.2141   -0.2800 H       1  UNL1        0.0000
     43 H          -0.4779    0.2464   -2.2226 H       1  UNL1        0.0000
     44 H           1.5362    1.4631   -0.4710 H       1  UNL1        0.0000
     45 H           1.5635   -1.4666   -0.1210 H       1  UNL1        0.0000
     46 H          -2.1336    1.2122   -0.2104 H       1  UNL1        0.0000
     47 H           0.7617   -0.2803   -1.8794 H       1  UNL1        0.0000
     48 H           1.8564    0.1553   -0.8093 H       1  UNL1        0.0000
     49 H           0.0462    0.4546    2.0928 H       1  UNL1        0.0000
     50 H          -0.4190   -1.3409    1.5801 H       1  UNL1        0.0000
     51 H          -1.3581   -1.4320   -0.6925 H       1  UNL1        0.0000
     52 H           0.1183    2.4658    0.4492 H       1  UNL1        0.0000
     53 H           0.4133   -1.7430   -0.9718 H       1  UNL1        0.0000
     54 H          -1.3273    0.9594   -1.2863 H       1  UNL1        0.0000
     55 H           0.4506   -1.7141   -1.0061 H       1  UNL1        0.0000
     56 H           1.3270    0.5409    1.6114 H       1  UNL1        0.0000
     57 H           1.7451   -1.0678   -1.3990 H       1  UNL1        0.0000
     58 H          -1.5522   -0.3752   -1.5663 H       1  UNL1        0.0000
     59 H           0.8060   -0.7321    1.8288 H       1  UNL1        0.0000
     60 H          -0.8904    1.7918   -0.1594 H       1  UNL1        0.0000
     61 H           0.8084    1.0760   -1.6111 H       1  UNL1        0.0000
     62 H           0.0084    1.3079   -1.5609 H       1  UNL1        0.0000
     63 H           0.5086    2.2866   -0.8276 H       1  UNL1        0.0000
     64 H           2.1372    0.6670    0.4713 H       1  UNL1        0.0000
     65 H          -0.4878   -2.0434    0.1774 H       1  UNL1        0.0000
     66 H          -1.7647    0.5434    0.9047 H       1  UNL1        0.0000
     67 H           1.0895    1.6183    0.8378 H       1  UNL1        0.0000
     68 EU          0.0000    0.0000    0.0000 Eu      1  UNL1        0.0000
@<TRIPOS>BOND
     1     1     2    2
     2     2     3   am
     3     3     4    1
     4     3     5    1
     5     5     6    1
     6     6     7    1
     7     2     8    1
     8     8     9   ar
     9     9    10   ar
    10     8    11   ar
    11    11    12   ar
    12    12    13   ar
    13    10    13   ar
    14    13    14   ar
    15    14    15   ar
    16    15    16   ar
    17    16    17   ar
    18    12    17   ar
    19    17    18   ar
    20    18    19   ar
    21    19    20    1
    22    20    21   ar
    23    21    22   ar
    24    22    23    1
    25    23    24    1
    26    23    25    1
    27    23    26    1
    28    26    27    1
    29    27    28    1
    30    28    29    1
    31    28    30    1
    32    22    31   ar
    33    28    31    1
    34    31    32   ar
    35    32    33   ar
    36    20    33   ar
    37    19    34   ar
    38    34    35   ar
    39    16    35   ar
    40     4    36    1
    41     4    37    1
    42     4    38    1
    43     5    39    1
    44     5    40    1
    45     6    41    1
    46     6    42    1
    47     7    43    1
    48     7    44    1
    49     7    45    1
    50     9    46    1
    51    10    47    1
    52    14    48    1
    53    15    49    1
    54    24    50    1
    55    24    51    1
    56    24    52    1
    57    25    53    1
    58    25    54    1
    59    25    55    1
    60    26    56    1
    61    26    57    1
    62    27    58    1
    63    27    59    1
    64    29    60    1
    65    29    61    1
    66    29    62    1
    67    30    63    1
    68    30    64    1
    69    30    65    1
    70    34    66    1
    71    35    67    1
    72    68     1    1
    73    68    33    1
    74    68    18    1
    75    68    11    1
@<TRIPOS>MOLECULE
*****
 68 75 0 0 0
SMALL
GASTEIGER

@<TRIPOS>ATOM
      1 O           0.0000    0.0000    0.0000 O.2     1  UNL1        0.0000
      2 C           0.0000    0.0000    0.0000 C.2     1  UNL1        0.0000
      3 N           0.0000    0.0000    0.0000 N.am    1  UNL1        0.0000
      4 C           0.0000    0.0000    0.0000 C.3     1  UNL1        0.0000
      5 C           0.0000    0.0000    0.0000 C.3     1  UNL1        0.0000
      6 C           0.0000    0.0000    0.0000 C.3     1  UNL1        0.0000
      7 C           0.0000    0.0000    0.0000 C.3     1  UNL1        0.0000
      8 C           0.0000    0.0000    0.0000 C.ar    1  UNL1        0.0000
      9 C           0.0000    0.0000    0.0000 C.ar    1  UNL1        0.0000
     10 C           0.0000    0.0000    0.0000 C.ar    1  UNL1        0.0000
     11 N           0.0000    0.0000    0.0000 N.ar    1  UNL1        0.0000
     12 C           0.0000    0.0000    0.0000 C.ar    1  UNL1        0.0000
     13 C           0.0000    0.0000    0.0000 C.ar    1  UNL1        0.0000
     14 C           0.0000    0.0000    0.0000 C.ar    1  UNL1        0.0000
     15 C           0.0000    0.0000    0.0000 C.ar    1  UNL1        0.0000
     16 C           0.0000    0.0000    0.0000 C.ar    1  UNL1        0.0000
     17 C           0.0000    0.0000    0.0000 C.ar    1  UNL1        0.0000
     18 N           0.0000    0.0000    0.0000 N.ar    1  UNL1        0.0000
     19 C           0.0000    0.0000    0.0000 C.ar    1  UNL1        0.0000
     20 C           0.0000    0.0000    0.0000 C.ar    1  UNL1        0.0000
     21 N           0.0000    0.0000    0.0000 N.ar    1  UNL1        0.0000
     22 C           0.0000    0.0000    0.0000 C.ar    1  UNL1        0.0000
     23 C           0.0000    0.0000    0.0000 C.3     1  UNL1        0.0000
     24 C           0.0000    0.0000    0.0000 C.3     1  UNL1        0.0000
     25 C           0.0000    0.0000    0.0000 C.3     1  UNL1        0.0000
     26 C           0.0000    0.0000    0.0000 C.3     1  UNL1        0.0000
     27 C           0.0000    0.0000    0.0000 C.3     1  UNL1        0.0000
     28 C           0.0000    0.0000    0.0000 C.3     1  UNL1        0.0000
     29 C           0.0000    0.0000    0.0000 C.3     1  UNL1        0.0000
     30 C           0.0000    0.0000    0.0000 C.3     1  UNL1        0.0000
     31 C           0.0000    0.0000    0.0000 C.ar    1  UNL1        0.0000
     32 N           0.0000    0.0000    0.0000 N.ar    1  UNL1        0.0000
     33 N           0.0000    0.0000    0.0000 N.ar    1  UNL1        0.0000
     34 C           0.0000    0.0000    0.0000 C.ar    1  UNL1        0.0000
     35 C           0.0000    0.0000    0.0000 C.ar    1  UNL1        0.0000
     36 H          -1.8073   -1.3367    0.8958 H       1  UNL1        0.0000
     37 H           0.8634   -2.0389    0.9730 H       1  UNL1        0.0000
     38 H          -0.7937    1.6519    1.5244 H       1  UNL1        0.0000
     39 H          -0.5281   -1.2733   -2.0254 H       1  UNL1        0.0000
     40 H          -1.2545   -0.3013    2.0892 H       1  UNL1        0.0000
     41 H           2.0262   -0.7706    1.1533 H       1  UNL1        0.0000
     42 H          -2.4092   -0.3723   -0.1526 H       1  UNL1        0.0000
     43 H          -0.6140    0.2549   -2.5346 H       1  UNL1        0.0000
     44 H           1.6932    1.6522   -0.6030 H       1  UNL1        0.0000
     45 H           1.8812   -1.5694   -0.1501 H       1  UNL1        0.0000
     46 H          -2.3030    1.1632   -0.3814 H       1  UNL1        0.0000
     47 H           0.8212   -0.3169   -2.1867 H       1  UNL1        0.0000
     48 H           2.0761    0.1276   -1.0483 H       1  UNL1        0.0000
     49 H           0.0369    0.5923    2.3263 H       1  UNL1        0.0000
     50 H          -0.5125   -1.6734    1.7691 H       1  UNL1        0.0000
     51 H          -1.5350   -1.6648   -0.7940 H       1  UNL1        0.0000
     52 H           0.0526    2.7420    0.7672 H       1  UNL1        0.0000
     53 H           0.4580   -2.0886   -0.9668 H       1  UNL1        0.0000
     54 H          -1.2264    1.3425   -1.5477 H       1  UNL1        0.0000
     55 H           0.4584   -2.0881   -0.9675 H       1  UNL1        0.0000
     56 H           1.5601    0.5535    1.9178 H       1  UNL1        0.0000
     57 H           1.8282   -1.3357   -1.6660 H       1  UNL1        0.0000
     58 H          -1.8059   -0.2596   -1.6118 H       1  UNL1        0.0000
     59 H           0.7654   -0.8490    2.1535 H       1  UNL1        0.0000
     60 H          -1.1069    2.0950   -0.0853 H       1  UNL1        0.0000
     61 H           0.6477    1.2705   -1.8827 H       1  UNL1        0.0000
     62 H           0.5031    1.3000   -1.9014 H       1  UNL1        0.0000
     63 H           0.2979    2.4221   -0.7666 H       1  UNL1        0.0000
     64 H           2.3419    0.6357    0.4687 H       1  UNL1        0.0000
     65 H          -0.6013   -2.3554    0.3072 H       1  UNL1        0.0000
     66 H          -1.9885    0.6739    1.0974 H       1  UNL1        0.0000
     67 H           1.2007    1.7406    0.9694 H       1  UNL1        0.0000
     68 EU          0.0000    0.0000    0.0000 Eu      1  UNL1        0.0000
@<TRIPOS>BOND
     1     1     2    2
     2     2     3   am
     3     3     4    1
     4     3     5    1
     5     5     6    1
     6     6     7    1
     7     2     8    1
     8     8     9   ar
     9     9    10   ar
    10     8    11   ar
    11    11    12   ar
    12    12    13   ar
    13    10    13   ar
    14    13    14   ar
    15    14    15   ar
    16    15    16   ar
    17    16    17   ar
    18    12    17   ar
    19    17    18   ar
    20    18    19   ar
    21    19    20    1
    22    20    21   ar
    23    21    22   ar
    24    22    23    1
    25    23    24    1
    26    23    25    1
    27    23    26    1
    28    26    27    1
    29    27    28    1
    30    28    29    1
    31    28    30    1
    32    22    31   ar
    33    28    31    1
    34    31    32   ar
    35    32    33   ar
    36    20    33   ar
    37    19    34   ar
    38    34    35   ar
    39    16    35   ar
    40     4    36    1
    41     4    37    1
    42     4    38    1
    43     5    39    1
    44     5    40    1
    45     6    41    1
    46     6    42    1
    47     7    43    1
    48     7    44    1
    49     7    45    1
    50     9    46    1
    51    10    47    1
    52    14    48    1
    53    15    49    1
    54    24    50    1
    55    24    51    1
    56    24    52    1
    57    25    53    1
    58    25    54    1
    59    25    55    1
    60    26    56    1
    61    26    57    1
    62    27    58    1
    63    27    59    1
    64    29    60    1
    65    29    61    1
    66    29    62    1
    67    30    63    1
    68    30    64    1
    69    30    65    1
    70    34    66    1
    71    35    67    1
    72    68     1    1
    73    68    33    1
    74    68    18    1
    75    68    11    1
@<TRIPOS>MOLECULE
*****
 68 75 0 0 0
SMALL
GASTEIGER

@<TRIPOS>ATOM
      1 O           0.0000    0.0000    0.0000 O.2     1  UNL1        0.0000
      2 C           0.0000    0.0000    0.0000 C.2     1  UNL1        0.0000
      3 N           0.0000    0.0000    0.0000 N.am    1  UNL1        0.0000
      4 C           0.0000    0.0000    0.0000 C.3     1  UNL1        0.0000
      5 C           0.0000    0.0000    0.0000 C.3     1  UNL1        0.0000
      6 C           0.0000    0.0000    0.0000 C.3     1  UNL1        0.0000
      7 C           0.0000    0.0000    0.0000 C.3     1  UNL1        0.0000
      8 C           0.0000    0.0000    0.0000 C.ar    1  UNL1        0.0000
      9 C           0.0000    0.0000    0.0000 C.ar    1  UNL1        0.0000
     10 C           0.0000    0.0000    0.0000 C.ar    1  UNL1        0.0000
     11 N           0.0000    0.0000    0.0000 N.ar    1  UNL1        0.0000
     12 C           0.0000    0.0000    0.0000 C.ar    1  UNL1        0.0000
     13 C           0.0000    0.0000    0.0000 C.ar    1  UNL1        0.0000
     14 C           0.0000    0.0000    0.0000 C.ar    1  UNL1        0.0000
     15 C           0.0000    0.0000    0.0000 C.ar    1  UNL1        0.0000
     16 C           0.0000    0.0000    0.0000 C.ar    1  UNL1        0.0000
     17 C           0.0000    0.0000    0.0000 C.ar    1  UNL1        0.0000
     18 N           0.0000    0.0000    0.0000 N.ar    1  UNL1        0.0000
     19 C           0.0000    0.0000    0.0000 C.ar    1  UNL1        0.0000
     20 C           0.0000    0.0000    0.0000 C.ar    1  UNL1        0.0000
     21 N           0.0000    0.0000    0.0000 N.ar    1  UNL1        0.0000
     22 C           0.0000    0.0000    0.0000 C.ar    1  UNL1        0.0000
     23 C           0.0000    0.0000    0.0000 C.3     1  UNL1        0.0000
     24 C           0.0000    0.0000    0.0000 C.3     1  UNL1        0.0000
     25 C           0.0000    0.0000    0.0000 C.3     1  UNL1        0.0000
     26 C           0.0000    0.0000    0.0000 C.3     1  UNL1        0.0000
     27 C           0.0000    0.0000    0.0000 C.3     1  UNL1        0.0000
     28 C           0.0000    0.0000    0.0000 C.3     1  UNL1        0.0000
     29 C           0.0000    0.0000    0.0000 C.3     1  UNL1        0.0000
     30 C           0.0000    0.0000    0.0000 C.3     1  UNL1        0.0000
     31 C           0.0000    0.0000    0.0000 C.ar    1  UNL1        0.0000
     32 N           0.0000    0.0000    0.0000 N.ar    1  UNL1        0.0000
     33 N           0.0000    0.0000    0.0000 N.ar    1  UNL1        0.0000
     34 C           0.0000    0.0000    0.0000 C.ar    1  UNL1        0.0000
     35 C           0.0000    0.0000    0.0000 C.ar    1  UNL1        0.0000
     36 H          -1.7538   -1.2195    1.1340 H       1  UNL1        0.0000
     37 H           0.8568   -2.1303    0.7940 H       1  UNL1        0.0000
     38 H          -1.2622    1.4171    1.6771 H       1  UNL1        0.0000
     39 H          -0.3886   -1.2328   -2.0317 H       1  UNL1        0.0000
     40 H          -1.0406   -0.1282    2.1447 H       1  UNL1        0.0000
     41 H           1.7718   -0.9804    1.3856 H       1  UNL1        0.0000
     42 H          -2.4064   -0.7085   -0.2189 H       1  UNL1        0.0000
     43 H          -0.6673    0.4540   -2.3311 H       1  UNL1        0.0000
     44 H           1.8427    1.5553   -0.6190 H       1  UNL1        0.0000
     45 H           1.9951   -1.3128   -0.1581 H       1  UNL1        0.0000
     46 H          -2.1211    0.8457   -0.6922 H       1  UNL1        0.0000
     47 H           0.7923   -0.1975   -2.3406 H       1  UNL1        0.0000
     48 H           1.9992    0.0749   -1.2564 H       1  UNL1        0.0000
     49 H           0.2417    1.0896    2.0970 H       1  UNL1        0.0000
     50 H          -0.3178   -1.6160    1.8238 H       1  UNL1        0.0000
     51 H          -1.4033   -1.7825   -0.8683 H       1  UNL1        0.0000
     52 H          -0.0805    2.3031    1.0647 H       1  UNL1        0.0000
     53 H           0.2929   -2.2046   -0.7956 H       1  UNL1        0.0000
     54 H          -0.9486    1.7372   -1.4056 H       1  UNL1        0.0000
     55 H           0.2929   -2.2046   -0.7956 H       1  UNL1        0.0000
     56 H           1.7255    0.5459    1.8027 H       1  UNL1        0.0000
     57 H           1.4386   -1.4121   -1.6346 H       1  UNL1        0.0000
     58 H          -1.7778   -0.4051   -1.6531 H       1  UNL1        0.0000
     59 H           0.5778   -0.4567    2.3502 H       1  UNL1        0.0000
     60 H          -1.3662    1.9808    0.1534 H       1  UNL1        0.0000
     61 H           0.7029    1.3538   -1.8112 H       1  UNL1        0.0000
     62 H           0.7029    1.3538   -1.8112 H       1  UNL1        0.0000
     63 H           0.3047    2.3294   -0.4817 H       1  UNL1        0.0000
     64 H           2.3498    0.2668    0.3333 H       1  UNL1        0.0000
     65 H          -0.7800   -2.3316    0.4873 H       1  UNL1        0.0000
     66 H          -2.1578    0.3916    0.9098 H       1  UNL1        0.0000
     67 H           1.3748    1.7449    0.8579 H       1  UNL1        0.0000
     68 EU          0.0000    0.0000    0.0000 Eu      1  UNL1        0.0000
@<TRIPOS>BOND
     1     1     2    2
     2     2     3   am
     3     3     4    1
     4     3     5    1
     5     5     6    1
     6     6     7    1
     7     2     8    1
     8     8     9   ar
     9     9    10   ar
    10     8    11   ar
    11    11    12   ar
    12    12    13   ar
    13    10    13   ar
    14    13    14   ar
    15    14    15   ar
    16    15    16   ar
    17    16    17   ar
    18    12    17   ar
    19    17    18   ar
    20    18    19   ar
    21    19    20    1
    22    20    21   ar
    23    21    22   ar
    24    22    23    1
    25    23    24    1
    26    23    25    1
    27    23    26    1
    28    26    27    1
    29    27    28    1
    30    28    29    1
    31    28    30    1
    32    22    31   ar
    33    28    31    1
    34    31    32   ar
    35    32    33   ar
    36    20    33   ar
    37    19    34   ar
    38    34    35   ar
    39    16    35   ar
    40     4    36    1
    41     4    37    1
    42     4    38    1
    43     5    39    1
    44     5    40    1
    45     6    41    1
    46     6    42    1
    47     7    43    1
    48     7    44    1
    49     7    45    1
    50     9    46    1
    51    10    47    1
    52    14    48    1
    53    15    49    1
    54    24    50    1
    55    24    51    1
    56    24    52    1
    57    25    53    1
    58    25    54    1
    59    25    55    1
    60    26    56    1
    61    26    57    1
    62    27    58    1
    63    27    59    1
    64    29    60    1
    65    29    61    1
    66    29    62    1
    67    30    63    1
    68    30    64    1
    69    30    65    1
    70    34    66    1
    71    35    67    1
    72    68     1    1
    73    68    33    1
    74    68    18    1
    75    68    11    1
@<TRIPOS>MOLECULE
*****
 68 75 0 0 0
SMALL
GASTEIGER

@<TRIPOS>ATOM
      1 O           0.0000    0.0000    0.0000 O.2     1  UNL1        0.0000
      2 C           0.0000    0.0000    0.0000 C.2     1  UNL1        0.0000
      3 N           0.0000    0.0000    0.0000 N.am    1  UNL1        0.0000
      4 C           0.0000    0.0000    0.0000 C.3     1  UNL1        0.0000
      5 C           0.0000    0.0000    0.0000 C.3     1  UNL1        0.0000
      6 C           0.0000    0.0000    0.0000 C.3     1  UNL1        0.0000
      7 C           0.0000    0.0000    0.0000 C.3     1  UNL1        0.0000
      8 C           0.0000    0.0000    0.0000 C.ar    1  UNL1        0.0000
      9 C           0.0000    0.0000    0.0000 C.ar    1  UNL1        0.0000
     10 C           0.0000    0.0000    0.0000 C.ar    1  UNL1        0.0000
     11 N           0.0000    0.0000    0.0000 N.ar    1  UNL1        0.0000
     12 C           0.0000    0.0000    0.0000 C.ar    1  UNL1        0.0000
     13 C           0.0000    0.0000    0.0000 C.ar    1  UNL1        0.0000
     14 C           0.0000    0.0000    0.0000 C.ar    1  UNL1        0.0000
     15 C           0.0000    0.0000    0.0000 C.ar    1  UNL1        0.0000
     16 C           0.0000    0.0000    0.0000 C.ar    1  UNL1        0.0000
     17 C           0.0000    0.0000    0.0000 C.ar    1  UNL1        0.0000
     18 N           0.0000    0.0000    0.0000 N.ar    1  UNL1        0.0000
     19 C           0.0000    0.0000    0.0000 C.ar    1  UNL1        0.0000
     20 C           0.0000    0.0000    0.0000 C.ar    1  UNL1        0.0000
     21 N           0.0000    0.0000    0.0000 N.ar    1  UNL1        0.0000
     22 C           0.0000    0.0000    0.0000 C.ar    1  UNL1        0.0000
     23 C           0.0000    0.0000    0.0000 C.3     1  UNL1        0.0000
     24 C           0.0000    0.0000    0.0000 C.3     1  UNL1        0.0000
     25 C           0.0000    0.0000    0.0000 C.3     1  UNL1        0.0000
     26 C           0.0000    0.0000    0.0000 C.3     1  UNL1        0.0000
     27 C           0.0000    0.0000    0.0000 C.3     1  UNL1        0.0000
     28 C           0.0000    0.0000    0.0000 C.3     1  UNL1        0.0000
     29 C           0.0000    0.0000    0.0000 C.3     1  UNL1        0.0000
     30 C           0.0000    0.0000    0.0000 C.3     1  UNL1        0.0000
     31 C           0.0000    0.0000    0.0000 C.ar    1  UNL1        0.0000
     32 N           0.0000    0.0000    0.0000 N.ar    1  UNL1        0.0000
     33 N           0.0000    0.0000    0.0000 N.ar    1  UNL1        0.0000
     34 C           0.0000    0.0000    0.0000 C.ar    1  UNL1        0.0000
     35 C           0.0000    0.0000    0.0000 C.ar    1  UNL1        0.0000
     36 H          -1.7858   -1.0670    1.2433 H       1  UNL1        0.0000
     37 H           0.7740   -2.1659    0.8869 H       1  UNL1        0.0000
     38 H          -1.3030    1.3497    1.7040 H       1  UNL1        0.0000
     39 H          -0.3160   -1.2834   -2.0317 H       1  UNL1        0.0000
     40 H          -0.9509   -0.0900    2.2405 H       1  UNL1        0.0000
     41 H           1.7758   -1.0414    1.3546 H       1  UNL1        0.0000
     42 H          -2.3017   -0.7733   -0.2610 H       1  UNL1        0.0000
     43 H          -0.7567    0.6438   -2.2026 H       1  UNL1        0.0000
     44 H           1.9250    1.4361   -0.4576 H       1  UNL1        0.0000
     45 H           1.8721   -1.4863   -0.2104 H       1  UNL1        0.0000
     46 H          -2.0349    0.7773   -0.9193 H       1  UNL1        0.0000
     47 H           0.6641   -0.0910   -2.3852 H       1  UNL1        0.0000
     48 H           1.9527    0.0706   -1.3411 H       1  UNL1        0.0000
     49 H           0.2753    1.1500    2.0544 H       1  UNL1        0.0000
     50 H          -0.3197   -1.5468    1.9024 H       1  UNL1        0.0000
     51 H          -1.3545   -1.8781   -0.9204 H       1  UNL1        0.0000
     52 H          -0.2695    2.2835    0.9577 H       1  UNL1        0.0000
     53 H           0.2978   -2.2357   -0.7161 H       1  UNL1        0.0000
     54 H          -0.8299    1.9195   -1.2350 H       1  UNL1        0.0000
     55 H           0.2978   -2.2357   -0.7161 H       1  UNL1        0.0000
     56 H           1.7807    0.5564    1.6146 H       1  UNL1        0.0000
     57 H           1.3140   -1.3606   -1.6963 H       1  UNL1        0.0000
     58 H          -1.7091   -0.5391   -1.7547 H       1  UNL1        0.0000
     59 H           0.6662   -0.3918    2.3265 H       1  UNL1        0.0000
     60 H          -1.5952    1.8568    0.1806 H       1  UNL1        0.0000
     61 H           0.7854    1.4063   -1.7372 H       1  UNL1        0.0000
     62 H           0.7854    1.4063   -1.7372 H       1  UNL1        0.0000
     63 H           0.4896    2.3792   -0.4226 H       1  UNL1        0.0000
     64 H           2.4078    0.0207    0.2199 H       1  UNL1        0.0000
     65 H          -0.8744   -2.2100    0.5469 H       1  UNL1        0.0000
     66 H          -2.2147    0.4447    0.7643 H       1  UNL1        0.0000
     67 H           1.2634    1.8549    0.9169 H       1  UNL1        0.0000
     68 EU          0.0000    0.0000    0.0000 Eu      1  UNL1        0.0000
@<TRIPOS>BOND
     1     1     2    2
     2     2     3   am
     3     3     4    1
     4     3     5    1
     5     5     6    1
     6     6     7    1
     7     2     8    1
     8     8     9   ar
     9     9    10   ar
    10     8    11   ar
    11    11    12   ar
    12    12    13   ar
    13    10    13   ar
    14    13    14   ar
    15    14    15   ar
    16    15    16   ar
    17    16    17   ar
    18    12    17   ar
    19    17    18   ar
    20    18    19   ar
    21    19    20    1
    22    20    21   ar
    23    21    22   ar
    24    22    23    1
    25    23    24    1
    26    23    25    1
    27    23    26    1
    28    26    27    1
    29    27    28    1
    30    28    29    1
    31    28    30    1
    32    22    31   ar
    33    28    31    1
    34    31    32   ar
    35    32    33   ar
    36    20    33   ar
    37    19    34   ar
    38    34    35   ar
    39    16    35   ar
    40     4    36    1
    41     4    37    1
    42     4    38    1
    43     5    39    1
    44     5    40    1
    45     6    41    1
    46     6    42    1
    47     7    43    1
    48     7    44    1
    49     7    45    1
    50     9    46    1
    51    10    47    1
    52    14    48    1
    53    15    49    1
    54    24    50    1
    55    24    51    1
    56    24    52    1
    57    25    53    1
    58    25    54    1
    59    25    55    1
    60    26    56    1
    61    26    57    1
    62    27    58    1
    63    27    59    1
    64    29    60    1
    65    29    61    1
    66    29    62    1
    67    30    63    1
    68    30    64    1
    69    30    65    1
    70    34    66    1
    71    35    67    1
    72    68     1    1
    73    68    33    1
    74    68    18    1
    75    68    11    1
@<TRIPOS>MOLECULE
*****
 68 75 0 0 0
SMALL
GASTEIGER

@<TRIPOS>ATOM
      1 O           0.0000    0.0000    0.0000 O.2     1  UNL1        0.0000
      2 C           0.0000    0.0000    0.0000 C.2     1  UNL1        0.0000
      3 N           0.0000    0.0000    0.0000 N.am    1  UNL1        0.0000
      4 C           0.0000    0.0000    0.0000 C.3     1  UNL1        0.0000
      5 C           0.0000    0.0000    0.0000 C.3     1  UNL1        0.0000
      6 C           0.0000    0.0000    0.0000 C.3     1  UNL1        0.0000
      7 C           0.0000    0.0000    0.0000 C.3     1  UNL1        0.0000
      8 C           0.0000    0.0000    0.0000 C.ar    1  UNL1        0.0000
      9 C           0.0000    0.0000    0.0000 C.ar    1  UNL1        0.0000
     10 C           0.0000    0.0000    0.0000 C.ar    1  UNL1        0.0000
     11 N           0.0000    0.0000    0.0000 N.ar    1  UNL1        0.0000
     12 C           0.0000    0.0000    0.0000 C.ar    1  UNL1        0.0000
     13 C           0.0000    0.0000    0.0000 C.ar    1  UNL1        0.0000
     14 C           0.0000    0.0000    0.0000 C.ar    1  UNL1        0.0000
     15 C           0.0000    0.0000    0.0000 C.ar    1  UNL1        0.0000
     16 C           0.0000    0.0000    0.0000 C.ar    1  UNL1        0.0000
     17 C           0.0000    0.0000    0.0000 C.ar    1  UNL1        0.0000
     18 N           0.0000    0.0000    0.0000 N.ar    1  UNL1        0.0000
     19 C           0.0000    0.0000    0.0000 C.ar    1  UNL1        0.0000
     20 C           0.0000    0.0000    0.0000 C.ar    1  UNL1        0.0000
     21 N           0.0000    0.0000    0.0000 N.ar    1  UNL1        0.0000
     22 C           0.0000    0.0000    0.0000 C.ar    1  UNL1        0.0000
     23 C           0.0000    0.0000    0.0000 C.3     1  UNL1        0.0000
     24 C           0.0000    0.0000    0.0000 C.3     1  UNL1        0.0000
     25 C           0.0000    0.0000    0.0000 C.3     1  UNL1        0.0000
     26 C           0.0000    0.0000    0.0000 C.3     1  UNL1        0.0000
     27 C           0.0000    0.0000    0.0000 C.3     1  UNL1        0.0000
     28 C           0.0000    0.0000    0.0000 C.3     1  UNL1        0.0000
     29 C           0.0000    0.0000    0.0000 C.3     1  UNL1        0.0000
     30 C           0.0000    0.0000    0.0000 C.3     1  UNL1        0.0000
     31 C           0.0000    0.0000    0.0000 C.ar    1  UNL1        0.0000
     32 N           0.0000    0.0000    0.0000 N.ar    1  UNL1        0.0000
     33 N           0.0000    0.0000    0.0000 N.ar    1  UNL1        0.0000
     34 C           0.0000    0.0000    0.0000 C.ar    1  UNL1        0.0000
     35 C           0.0000    0.0000    0.0000 C.ar    1  UNL1        0.0000
     36 H          -1.7840   -1.1221    1.2114 H       1  UNL1        0.0000
     37 H           0.7748   -2.1690    0.8974 H       1  UNL1        0.0000
     38 H          -1.2988    1.3672    1.7200 H       1  UNL1        0.0000
     39 H          -0.3019   -1.3549   -2.0244 H       1  UNL1        0.0000
     40 H          -0.9742   -0.0928    2.1972 H       1  UNL1        0.0000
     41 H           1.7651   -1.0305    1.3511 H       1  UNL1        0.0000
     42 H          -2.3106   -0.7347   -0.2851 H       1  UNL1        0.0000
     43 H          -0.7953    0.7441   -2.1643 H       1  UNL1        0.0000
     44 H           1.9378    1.4052   -0.3962 H       1  UNL1        0.0000
     45 H           1.8575   -1.5214   -0.2064 H       1  UNL1        0.0000
     46 H          -2.0285    0.7825   -0.9406 H       1  UNL1        0.0000
     47 H           0.5771   -0.0873   -2.3729 H       1  UNL1        0.0000
     48 H           1.9365    0.1028   -1.3699 H       1  UNL1        0.0000
     49 H           0.2659    1.1713    2.0437 H       1  UNL1        0.0000
     50 H          -0.3063   -1.5308    1.8954 H       1  UNL1        0.0000
     51 H          -1.3584   -1.8628   -0.8886 H       1  UNL1        0.0000
     52 H          -0.3089    2.2670    0.8558 H       1  UNL1        0.0000
     53 H           0.3087   -2.2397   -0.7062 H       1  UNL1        0.0000
     54 H          -0.8037    1.9719   -1.1253 H       1  UNL1        0.0000
     55 H           0.3087   -2.2397   -0.7062 H       1  UNL1        0.0000
     56 H           1.7892    0.5616    1.5644 H       1  UNL1        0.0000
     57 H           1.3126   -1.3298   -1.6924 H       1  UNL1        0.0000
     58 H          -1.6482   -0.5250   -1.7510 H       1  UNL1        0.0000
     59 H           0.6686   -0.3562    2.3319 H       1  UNL1        0.0000
     60 H          -1.6920    1.8216    0.2087 H       1  UNL1        0.0000
     61 H           0.7976    1.4042   -1.7306 H       1  UNL1        0.0000
     62 H           0.7976    1.4042   -1.7306 H       1  UNL1        0.0000
     63 H           0.5910    2.4059   -0.4367 H       1  UNL1        0.0000
     64 H           2.4183   -0.0399    0.1888 H       1  UNL1        0.0000
     65 H          -0.8456   -2.2492    0.5609 H       1  UNL1        0.0000
     66 H          -2.1945    0.4028    0.8211 H       1  UNL1        0.0000
     67 H           1.2367    1.8880    0.9497 H       1  UNL1        0.0000
     68 EU          0.0000    0.0000    0.0000 Eu      1  UNL1        0.0000
@<TRIPOS>BOND
     1     1     2    2
     2     2     3   am
     3     3     4    1
     4     3     5    1
     5     5     6    1
     6     6     7    1
     7     2     8    1
     8     8     9   ar
     9     9    10   ar
    10     8    11   ar
    11    11    12   ar
    12    12    13   ar
    13    10    13   ar
    14    13    14   ar
    15    14    15   ar
    16    15    16   ar
    17    16    17   ar
    18    12    17   ar
    19    17    18   ar
    20    18    19   ar
    21    19    20    1
    22    20    21   ar
    23    21    22   ar
    24    22    23    1
    25    23    24    1
    26    23    25    1
    27    23    26    1
    28    26    27    1
    29    27    28    1
    30    28    29    1
    31    28    30    1
    32    22    31   ar
    33    28    31    1
    34    31    32   ar
    35    32    33   ar
    36    20    33   ar
    37    19    34   ar
    38    34    35   ar
    39    16    35   ar
    40     4    36    1
    41     4    37    1
    42     4    38    1
    43     5    39    1
    44     5    40    1
    45     6    41    1
    46     6    42    1
    47     7    43    1
    48     7    44    1
    49     7    45    1
    50     9    46    1
    51    10    47    1
    52    14    48    1
    53    15    49    1
    54    24    50    1
    55    24    51    1
    56    24    52    1
    57    25    53    1
    58    25    54    1
    59    25    55    1
    60    26    56    1
    61    26    57    1
    62    27    58    1
    63    27    59    1
    64    29    60    1
    65    29    61    1
    66    29    62    1
    67    30    63    1
    68    30    64    1
    69    30    65    1
    70    34    66    1
    71    35    67    1
    72    68     1    1
    73    68    33    1
    74    68    18    1
    75    68    11    1
@<TRIPOS>MOLECULE
*****
 68 75 0 0 0
SMALL
GASTEIGER

@<TRIPOS>ATOM
      1 O           0.0000    0.0000    0.0000 O.2     1  UNL1        0.0000
      2 C           0.0000    0.0000    0.0000 C.2     1  UNL1        0.0000
      3 N           0.0000    0.0000    0.0000 N.am    1  UNL1        0.0000
      4 C           0.0000    0.0000    0.0000 C.3     1  UNL1        0.0000
      5 C           0.0000    0.0000    0.0000 C.3     1  UNL1        0.0000
      6 C           0.0000    0.0000    0.0000 C.3     1  UNL1        0.0000
      7 C           0.0000    0.0000    0.0000 C.3     1  UNL1        0.0000
      8 C           0.0000    0.0000    0.0000 C.ar    1  UNL1        0.0000
      9 C           0.0000    0.0000    0.0000 C.ar    1  UNL1        0.0000
     10 C           0.0000    0.0000    0.0000 C.ar    1  UNL1        0.0000
     11 N           0.0000    0.0000    0.0000 N.ar    1  UNL1        0.0000
     12 C           0.0000    0.0000    0.0000 C.ar    1  UNL1        0.0000
     13 C           0.0000    0.0000    0.0000 C.ar    1  UNL1        0.0000
     14 C           0.0000    0.0000    0.0000 C.ar    1  UNL1        0.0000
     15 C           0.0000    0.0000    0.0000 C.ar    1  UNL1        0.0000
     16 C           0.0000    0.0000    0.0000 C.ar    1  UNL1        0.0000
     17 C           0.0000    0.0000    0.0000 C.ar    1  UNL1        0.0000
     18 N           0.0000    0.0000    0.0000 N.ar    1  UNL1        0.0000
     19 C           0.0000    0.0000    0.0000 C.ar    1  UNL1        0.0000
     20 C           0.0000    0.0000    0.0000 C.ar    1  UNL1        0.0000
     21 N           0.0000    0.0000    0.0000 N.ar    1  UNL1        0.0000
     22 C           0.0000    0.0000    0.0000 C.ar    1  UNL1        0.0000
     23 C           0.0000    0.0000    0.0000 C.3     1  UNL1        0.0000
     24 C           0.0000    0.0000    0.0000 C.3     1  UNL1        0.0000
     25 C           0.0000    0.0000    0.0000 C.3     1  UNL1        0.0000
     26 C           0.0000    0.0000    0.0000 C.3     1  UNL1        0.0000
     27 C           0.0000    0.0000    0.0000 C.3     1  UNL1        0.0000
     28 C           0.0000    0.0000    0.0000 C.3     1  UNL1        0.0000
     29 C           0.0000    0.0000    0.0000 C.3     1  UNL1        0.0000
     30 C           0.0000    0.0000    0.0000 C.3     1  UNL1        0.0000
     31 C           0.0000    0.0000    0.0000 C.ar    1  UNL1        0.0000
     32 N           0.0000    0.0000    0.0000 N.ar    1  UNL1        0.0000
     33 N           0.0000    0.0000    0.0000 N.ar    1  UNL1        0.0000
     34 C           0.0000    0.0000    0.0000 C.ar    1  UNL1        0.0000
     35 C           0.0000    0.0000    0.0000 C.ar    1  UNL1        0.0000
     36 H          -1.7887   -1.1460    1.1720 H       1  UNL1        0.0000
     37 H           0.7832   -2.1642    0.9155 H       1  UNL1        0.0000
     38 H          -1.2785    1.4120    1.7178 H       1  UNL1        0.0000
     39 H          -0.3218   -1.4154   -2.0128 H       1  UNL1        0.0000
     40 H          -0.9947   -0.0795    2.1572 H       1  UNL1        0.0000
     41 H           1.7579   -1.0115    1.3570 H       1  UNL1        0.0000
     42 H          -2.3286   -0.6808   -0.3058 H       1  UNL1        0.0000
     43 H          -0.8027    0.8118   -2.1503 H       1  UNL1        0.0000
     44 H           1.9571    1.3799   -0.3912 H       1  UNL1        0.0000
     45 H           1.8467   -1.5402   -0.1998 H       1  UNL1        0.0000
     46 H          -2.0139    0.7990   -0.9704 H       1  UNL1        0.0000
     47 H           0.5081   -0.1134   -2.3658 H       1  UNL1        0.0000
     48 H           1.9231    0.0903   -1.3908 H       1  UNL1        0.0000
     49 H           0.2709    1.1851    2.0297 H       1  UNL1        0.0000
     50 H          -0.3168   -1.5143    1.9039 H       1  UNL1        0.0000
     51 H          -1.3790   -1.8429   -0.8462 H       1  UNL1        0.0000
     52 H          -0.3256    2.2731    0.7740 H       1  UNL1        0.0000
     53 H           0.3043   -2.2488   -0.6819 H       1  UNL1        0.0000
     54 H          -0.7775    2.0032   -1.0621 H       1  UNL1        0.0000
     55 H           0.3043   -2.2488   -0.6819 H       1  UNL1        0.0000
     56 H           1.7977    0.5756    1.5436 H       1  UNL1        0.0000
     57 H           1.2938   -1.3387   -1.6890 H       1  UNL1        0.0000
     58 H          -1.6108   -0.5222   -1.7835 H       1  UNL1        0.0000
     59 H           0.6530   -0.3361    2.3365 H       1  UNL1        0.0000
     60 H          -1.7402    1.7985    0.2198 H       1  UNL1        0.0000
     61 H           0.8067    1.3858   -1.7397 H       1  UNL1        0.0000
     62 H           0.8067    1.3858   -1.7397 H       1  UNL1        0.0000
     63 H           0.6562    2.4100   -0.4657 H       1  UNL1        0.0000
     64 H           2.4213   -0.0657    0.1596 H       1  UNL1        0.0000
     65 H          -0.8277   -2.2704    0.5798 H       1  UNL1        0.0000
     66 H          -2.1794    0.3905    0.8704 H       1  UNL1        0.0000
     67 H           1.2265    1.8958    0.9450 H       1  UNL1        0.0000
     68 EU          0.0000    0.0000    0.0000 Eu      1  UNL1        0.0000
@<TRIPOS>BOND
     1     1     2    2
     2     2     3   am
     3     3     4    1
     4     3     5    1
     5     5     6    1
     6     6     7    1
     7     2     8    1
     8     8     9   ar
     9     9    10   ar
    10     8    11   ar
    11    11    12   ar
    12    12    13   ar
    13    10    13   ar
    14    13    14   ar
    15    14    15   ar
    16    15    16   ar
    17    16    17   ar
    18    12    17   ar
    19    17    18   ar
    20    18    19   ar
    21    19    20    1
    22    20    21   ar
    23    21    22   ar
    24    22    23    1
    25    23    24    1
    26    23    25    1
    27    23    26    1
    28    26    27    1
    29    27    28    1
    30    28    29    1
    31    28    30    1
    32    22    31   ar
    33    28    31    1
    34    31    32   ar
    35    32    33   ar
    36    20    33   ar
    37    19    34   ar
    38    34    35   ar
    39    16    35   ar
    40     4    36    1
    41     4    37    1
    42     4    38    1
    43     5    39    1
    44     5    40    1
    45     6    41    1
    46     6    42    1
    47     7    43    1
    48     7    44    1
    49     7    45    1
    50     9    46    1
    51    10    47    1
    52    14    48    1
    53    15    49    1
    54    24    50    1
    55    24    51    1
    56    24    52    1
    57    25    53    1
    58    25    54    1
    59    25    55    1
    60    26    56    1
    61    26    57    1
    62    27    58    1
    63    27    59    1
    64    29    60    1
    65    29    61    1
    66    29    62    1
    67    30    63    1
    68    30    64    1
    69    30    65    1
    70    34    66    1
    71    35    67    1
    72    68     1    1
    73    68    33    1
    74    68    18    1
    75    68    11    1
@<TRIPOS>MOLECULE
*****
 68 75 0 0 0
SMALL
GASTEIGER

@<TRIPOS>ATOM
      1 O           0.0000    0.0000    0.0000 O.2     1  UNL1        0.0000
      2 C           0.0000    0.0000    0.0000 C.2     1  UNL1        0.0000
      3 N           0.0000    0.0000    0.0000 N.am    1  UNL1        0.0000
      4 C           0.0000    0.0000    0.0000 C.3     1  UNL1        0.0000
      5 C           0.0000    0.0000    0.0000 C.3     1  UNL1        0.0000
      6 C           0.0000    0.0000    0.0000 C.3     1  UNL1        0.0000
      7 C           0.0000    0.0000    0.0000 C.3     1  UNL1        0.0000
      8 C           0.0000    0.0000    0.0000 C.ar    1  UNL1        0.0000
      9 C           0.0000    0.0000    0.0000 C.ar    1  UNL1        0.0000
     10 C           0.0000    0.0000    0.0000 C.ar    1  UNL1        0.0000
     11 N           0.0000    0.0000    0.0000 N.ar    1  UNL1        0.0000
     12 C           0.0000    0.0000    0.0000 C.ar    1  UNL1        0.0000
     13 C           0.0000    0.0000    0.0000 C.ar    1  UNL1        0.0000
     14 C           0.0000    0.0000    0.0000 C.ar    1  UNL1        0.0000
     15 C           0.0000    0.0000    0.0000 C.ar    1  UNL1        0.0000
     16 C           0.0000    0.0000    0.0000 C.ar    1  UNL1        0.0000
     17 C           0.0000    0.0000    0.0000 C.ar    1  UNL1        0.0000
     18 N           0.0000    0.0000    0.0000 N.ar    1  UNL1        0.0000
     19 C           0.0000    0.0000    0.0000 C.ar    1  UNL1        0.0000
     20 C           0.0000    0.0000    0.0000 C.ar    1  UNL1        0.0000
     21 N           0.0000    0.0000    0.0000 N.ar    1  UNL1        0.0000
     22 C           0.0000    0.0000    0.0000 C.ar    1  UNL1        0.0000
     23 C           0.0000    0.0000    0.0000 C.3     1  UNL1        0.0000
     24 C           0.0000    0.0000    0.0000 C.3     1  UNL1        0.0000
     25 C           0.0000    0.0000    0.0000 C.3     1  UNL1        0.0000
     26 C           0.0000    0.0000    0.0000 C.3     1  UNL1        0.0000
     27 C           0.0000    0.0000    0.0000 C.3     1  UNL1        0.0000
     28 C           0.0000    0.0000    0.0000 C.3     1  UNL1        0.0000
     29 C           0.0000    0.0000    0.0000 C.3     1  UNL1        0.0000
     30 C           0.0000    0.0000    0.0000 C.3     1  UNL1        0.0000
     31 C           0.0000    0.0000    0.0000 C.ar    1  UNL1        0.0000
     32 N           0.0000    0.0000    0.0000 N.ar    1  UNL1        0.0000
     33 N           0.0000    0.0000    0.0000 N.ar    1  UNL1        0.0000
     34 C           0.0000    0.0000    0.0000 C.ar    1  UNL1        0.0000
     35 C           0.0000    0.0000    0.0000 C.ar    1  UNL1        0.0000
     36 H          -1.7925   -1.1651    1.1472 H       1  UNL1        0.0000
     37 H           0.7833   -2.1511    0.9263 H       1  UNL1        0.0000
     38 H          -1.2609    1.4114    1.7276 H       1  UNL1        0.0000
     39 H          -0.3331   -1.4305   -2.0066 H       1  UNL1        0.0000
     40 H          -1.0116   -0.0834    2.1740 H       1  UNL1        0.0000
     41 H           1.7705   -1.0033    1.3555 H       1  UNL1        0.0000
     42 H          -2.3385   -0.6522   -0.3105 H       1  UNL1        0.0000
     43 H          -0.8050    0.8227   -2.1482 H       1  UNL1        0.0000
     44 H           1.9494    1.3832   -0.4020 H       1  UNL1        0.0000
     45 H           1.8540   -1.5356   -0.2077 H       1  UNL1        0.0000
     46 H          -2.0110    0.8125   -0.9795 H       1  UNL1        0.0000
     47 H           0.4923   -0.1181   -2.3641 H       1  UNL1        0.0000
     48 H           1.9214    0.0875   -1.3924 H       1  UNL1        0.0000
     49 H           0.2865    1.1830    2.0243 H       1  UNL1        0.0000
     50 H          -0.3380   -1.5106    1.8903 H       1  UNL1        0.0000
     51 H          -1.3952   -1.8323   -0.8273 H       1  UNL1        0.0000
     52 H          -0.3329    2.2745    0.7562 H       1  UNL1        0.0000
     53 H           0.3017   -2.2482   -0.6826 H       1  UNL1        0.0000
     54 H          -0.7860    2.0074   -1.0472 H       1  UNL1        0.0000
     55 H           0.3017   -2.2482   -0.6826 H       1  UNL1        0.0000
     56 H           1.8083    0.5840    1.5324 H       1  UNL1        0.0000
     57 H           1.2894   -1.3400   -1.6901 H       1  UNL1        0.0000
     58 H          -1.6065   -0.5230   -1.7871 H       1  UNL1        0.0000
     59 H           0.6605   -0.3509    2.3236 H       1  UNL1        0.0000
     60 H          -1.7582    1.7808    0.2335 H       1  UNL1        0.0000
     61 H           0.8039    1.3812   -1.7428 H       1  UNL1        0.0000
     62 H           0.8039    1.3812   -1.7428 H       1  UNL1        0.0000
     63 H           0.6629    2.4226   -0.4674 H       1  UNL1        0.0000
     64 H           2.4247   -0.0592    0.1654 H       1  UNL1        0.0000
     65 H          -0.8217   -2.2940    0.5790 H       1  UNL1        0.0000
     66 H          -2.1708    0.3766    0.8987 H       1  UNL1        0.0000
     67 H           1.2238    1.9112    0.9305 H       1  UNL1        0.0000
     68 EU          0.0000    0.0000    0.0000 Eu      1  UNL1        0.0000
@<TRIPOS>BOND
     1     1     2    2
     2     2     3   am
     3     3     4    1
     4     3     5    1
     5     5     6    1
     6     6     7    1
     7     2     8    1
     8     8     9   ar
     9     9    10   ar
    10     8    11   ar
    11    11    12   ar
    12    12    13   ar
    13    10    13   ar
    14    13    14   ar
    15    14    15   ar
    16    15    16   ar
    17    16    17   ar
    18    12    17   ar
    19    17    18   ar
    20    18    19   ar
    21    19    20    1
    22    20    21   ar
    23    21    22   ar
    24    22    23    1
    25    23    24    1
    26    23    25    1
    27    23    26    1
    28    26    27    1
    29    27    28    1
    30    28    29    1
    31    28    30    1
    32    22    31   ar
    33    28    31    1
    34    31    32   ar
    35    32    33   ar
    36    20    33   ar
    37    19    34   ar
    38    34    35   ar
    39    16    35   ar
    40     4    36    1
    41     4    37    1
    42     4    38    1
    43     5    39    1
    44     5    40    1
    45     6    41    1
    46     6    42    1
    47     7    43    1
    48     7    44    1
    49     7    45    1
    50     9    46    1
    51    10    47    1
    52    14    48    1
    53    15    49    1
    54    24    50    1
    55    24    51    1
    56    24    52    1
    57    25    53    1
    58    25    54    1
    59    25    55    1
    60    26    56    1
    61    26    57    1
    62    27    58    1
    63    27    59    1
    64    29    60    1
    65    29    61    1
    66    29    62    1
    67    30    63    1
    68    30    64    1
    69    30    65    1
    70    34    66    1
    71    35    67    1
    72    68     1    1
    73    68    33    1
    74    68    18    1
    75    68    11    1
@<TRIPOS>MOLECULE
*****
 68 75 0 0 0
SMALL
GASTEIGER

@<TRIPOS>ATOM
      1 O           0.0000    0.0000    0.0000 O.2     1  UNL1        0.0000
      2 C           0.0000    0.0000    0.0000 C.2     1  UNL1        0.0000
      3 N           0.0000    0.0000    0.0000 N.am    1  UNL1        0.0000
      4 C           0.0000    0.0000    0.0000 C.3     1  UNL1        0.0000
      5 C           0.0000    0.0000    0.0000 C.3     1  UNL1        0.0000
      6 C           0.0000    0.0000    0.0000 C.3     1  UNL1        0.0000
      7 C           0.0000    0.0000    0.0000 C.3     1  UNL1        0.0000
      8 C           0.0000    0.0000    0.0000 C.ar    1  UNL1        0.0000
      9 C           0.0000    0.0000    0.0000 C.ar    1  UNL1        0.0000
     10 C           0.0000    0.0000    0.0000 C.ar    1  UNL1        0.0000
     11 N           0.0000    0.0000    0.0000 N.ar    1  UNL1        0.0000
     12 C           0.0000    0.0000    0.0000 C.ar    1  UNL1        0.0000
     13 C           0.0000    0.0000    0.0000 C.ar    1  UNL1        0.0000
     14 C           0.0000    0.0000    0.0000 C.ar    1  UNL1        0.0000
     15 C           0.0000    0.0000    0.0000 C.ar    1  UNL1        0.0000
     16 C           0.0000    0.0000    0.0000 C.ar    1  UNL1        0.0000
     17 C           0.0000    0.0000    0.0000 C.ar    1  UNL1        0.0000
     18 N           0.0000    0.0000    0.0000 N.ar    1  UNL1        0.0000
     19 C           0.0000    0.0000    0.0000 C.ar    1  UNL1        0.0000
     20 C           0.0000    0.0000    0.0000 C.ar    1  UNL1        0.0000
     21 N           0.0000    0.0000    0.0000 N.ar    1  UNL1        0.0000
     22 C           0.0000    0.0000    0.0000 C.ar    1  UNL1        0.0000
     23 C           0.0000    0.0000    0.0000 C.3     1  UNL1        0.0000
     24 C           0.0000    0.0000    0.0000 C.3     1  UNL1        0.0000
     25 C           0.0000    0.0000    0.0000 C.3     1  UNL1        0.0000
     26 C           0.0000    0.0000    0.0000 C.3     1  UNL1        0.0000
     27 C           0.0000    0.0000    0.0000 C.3     1  UNL1        0.0000
     28 C           0.0000    0.0000    0.0000 C.3     1  UNL1        0.0000
     29 C           0.0000    0.0000    0.0000 C.3     1  UNL1        0.0000
     30 C           0.0000    0.0000    0.0000 C.3     1  UNL1        0.0000
     31 C           0.0000    0.0000    0.0000 C.ar    1  UNL1        0.0000
     32 N           0.0000    0.0000    0.0000 N.ar    1  UNL1        0.0000
     33 N           0.0000    0.0000    0.0000 N.ar    1  UNL1        0.0000
     34 C           0.0000    0.0000    0.0000 C.ar    1  UNL1        0.0000
     35 C           0.0000    0.0000    0.0000 C.ar    1  UNL1        0.0000
     36 H          -1.7849   -1.1629    1.1537 H       1  UNL1        0.0000
     37 H           0.7949   -2.1471    0.9310 H       1  UNL1        0.0000
     38 H          -1.2540    1.4133    1.7258 H       1  UNL1        0.0000
     39 H          -0.3391   -1.4282   -2.0039 H       1  UNL1        0.0000
     40 H          -1.0020   -0.0854    2.1726 H       1  UNL1        0.0000
     41 H           1.7723   -1.0014    1.3581 H       1  UNL1        0.0000
     42 H          -2.3383   -0.6505   -0.3043 H       1  UNL1        0.0000
     43 H          -0.8074    0.8184   -2.1545 H       1  UNL1        0.0000
     44 H           1.9491    1.3767   -0.4036 H       1  UNL1        0.0000
     45 H           1.8491   -1.5305   -0.2065 H       1  UNL1        0.0000
     46 H          -2.0133    0.8141   -0.9734 H       1  UNL1        0.0000
     47 H           0.4888   -0.1231   -2.3660 H       1  UNL1        0.0000
     48 H           1.9173    0.0783   -1.3972 H       1  UNL1        0.0000
     49 H           0.2923    1.1952    2.0253 H       1  UNL1        0.0000
     50 H          -0.3149   -1.5133    1.9057 H       1  UNL1        0.0000
     51 H          -1.3914   -1.8287   -0.8200 H       1  UNL1        0.0000
     52 H          -0.3271    2.2746    0.7600 H       1  UNL1        0.0000
     53 H           0.3023   -2.2496   -0.6748 H       1  UNL1        0.0000
     54 H          -0.7880    2.0072   -1.0481 H       1  UNL1        0.0000
     55 H           0.3023   -2.2496   -0.6748 H       1  UNL1        0.0000
     56 H           1.7950    0.5964    1.5293 H       1  UNL1        0.0000
     57 H           1.2755   -1.3349   -1.6904 H       1  UNL1        0.0000
     58 H          -1.6118   -0.5149   -1.7790 H       1  UNL1        0.0000
     59 H           0.6608   -0.3335    2.3250 H       1  UNL1        0.0000
     60 H          -1.7581    1.7909    0.2308 H       1  UNL1        0.0000
     61 H           0.8019    1.3744   -1.7461 H       1  UNL1        0.0000
     62 H           0.8019    1.3744   -1.7461 H       1  UNL1        0.0000
     63 H           0.6563    2.4203   -0.4820 H       1  UNL1        0.0000
     64 H           2.4223   -0.0614    0.1646 H       1  UNL1        0.0000
     65 H          -0.8133   -2.2875    0.5883 H       1  UNL1        0.0000
     66 H          -2.1688    0.3805    0.9044 H       1  UNL1        0.0000
     67 H           1.2301    1.9211    0.9224 H       1  UNL1        0.0000
     68 EU          0.0000    0.0000    0.0000 Eu      1  UNL1        0.0000
@<TRIPOS>BOND
     1     1     2    2
     2     2     3   am
     3     3     4    1
     4     3     5    1
     5     5     6    1
     6     6     7    1
     7     2     8    1
     8     8     9   ar
     9     9    10   ar
    10     8    11   ar
    11    11    12   ar
    12    12    13   ar
    13    10    13   ar
    14    13    14   ar
    15    14    15   ar
    16    15    16   ar
    17    16    17   ar
    18    12    17   ar
    19    17    18   ar
    20    18    19   ar
    21    19    20    1
    22    20    21   ar
    23    21    22   ar
    24    22    23    1
    25    23    24    1
    26    23    25    1
    27    23    26    1
    28    26    27    1
    29    27    28    1
    30    28    29    1
    31    28    30    1
    32    22    31   ar
    33    28    31    1
    34    31    32   ar
    35    32    33   ar
    36    20    33   ar
    37    19    34   ar
    38    34    35   ar
    39    16    35   ar
    40     4    36    1
    41     4    37    1
    42     4    38    1
    43     5    39    1
    44     5    40    1
    45     6    41    1
    46     6    42    1
    47     7    43    1
    48     7    44    1
    49     7    45    1
    50     9    46    1
    51    10    47    1
    52    14    48    1
    53    15    49    1
    54    24    50    1
    55    24    51    1
    56    24    52    1
    57    25    53    1
    58    25    54    1
    59    25    55    1
    60    26    56    1
    61    26    57    1
    62    27    58    1
    63    27    59    1
    64    29    60    1
    65    29    61    1
    66    29    62    1
    67    30    63    1
    68    30    64    1
    69    30    65    1
    70    34    66    1
    71    35    67    1
    72    68     1    1
    73    68    33    1
    74    68    18    1
    75    68    11    1
@<TRIPOS>MOLECULE
*****
 68 75 0 0 0
SMALL
GASTEIGER

@<TRIPOS>ATOM
      1 O           0.0000    0.0000    0.0000 O.2     1  UNL1        0.0000
      2 C           0.0000    0.0000    0.0000 C.2     1  UNL1        0.0000
      3 N           0.0000    0.0000    0.0000 N.am    1  UNL1        0.0000
      4 C           0.0000    0.0000    0.0000 C.3     1  UNL1        0.0000
      5 C           0.0000    0.0000    0.0000 C.3     1  UNL1        0.0000
      6 C           0.0000    0.0000    0.0000 C.3     1  UNL1        0.0000
      7 C           0.0000    0.0000    0.0000 C.3     1  UNL1        0.0000
      8 C           0.0000    0.0000    0.0000 C.ar    1  UNL1        0.0000
      9 C           0.0000    0.0000    0.0000 C.ar    1  UNL1        0.0000
     10 C           0.0000    0.0000    0.0000 C.ar    1  UNL1        0.0000
     11 N           0.0000    0.0000    0.0000 N.ar    1  UNL1        0.0000
     12 C           0.0000    0.0000    0.0000 C.ar    1  UNL1        0.0000
     13 C           0.0000    0.0000    0.0000 C.ar    1  UNL1        0.0000
     14 C           0.0000    0.0000    0.0000 C.ar    1  UNL1        0.0000
     15 C           0.0000    0.0000    0.0000 C.ar    1  UNL1        0.0000
     16 C           0.0000    0.0000    0.0000 C.ar    1  UNL1        0.0000
     17 C           0.0000    0.0000    0.0000 C.ar    1  UNL1        0.0000
     18 N           0.0000    0.0000    0.0000 N.ar    1  UNL1        0.0000
     19 C           0.0000    0.0000    0.0000 C.ar    1  UNL1        0.0000
     20 C           0.0000    0.0000    0.0000 C.ar    1  UNL1        0.0000
     21 N           0.0000    0.0000    0.0000 N.ar    1  UNL1        0.0000
     22 C           0.0000    0.0000    0.0000 C.ar    1  UNL1        0.0000
     23 C           0.0000    0.0000    0.0000 C.3     1  UNL1        0.0000
     24 C           0.0000    0.0000    0.0000 C.3     1  UNL1        0.0000
     25 C           0.0000    0.0000    0.0000 C.3     1  UNL1        0.0000
     26 C           0.0000    0.0000    0.0000 C.3     1  UNL1        0.0000
     27 C           0.0000    0.0000    0.0000 C.3     1  UNL1        0.0000
     28 C           0.0000    0.0000    0.0000 C.3     1  UNL1        0.0000
     29 C           0.0000    0.0000    0.0000 C.3     1  UNL1        0.0000
     30 C           0.0000    0.0000    0.0000 C.3     1  UNL1        0.0000
     31 C           0.0000    0.0000    0.0000 C.ar    1  UNL1        0.0000
     32 N           0.0000    0.0000    0.0000 N.ar    1  UNL1        0.0000
     33 N           0.0000    0.0000    0.0000 N.ar    1  UNL1        0.0000
     34 C           0.0000    0.0000    0.0000 C.ar    1  UNL1        0.0000
     35 C           0.0000    0.0000    0.0000 C.ar    1  UNL1        0.0000
     36 H          -1.7799   -1.1606    1.1643 H       1  UNL1        0.0000
     37 H           0.7965   -2.1417    0.9291 H       1  UNL1        0.0000
     38 H          -1.2534    1.4148    1.7251 H       1  UNL1        0.0000
     39 H          -0.3388   -1.4367   -2.0035 H       1  UNL1        0.0000
     40 H          -0.9948   -0.0806    2.1767 H       1  UNL1        0.0000
     41 H           1.7882   -0.9964    1.3501 H       1  UNL1        0.0000
     42 H          -2.3368   -0.6606   -0.2959 H       1  UNL1        0.0000
     43 H          -0.8219    0.8216   -2.1460 H       1  UNL1        0.0000
     44 H           1.9470    1.3889   -0.4217 H       1  UNL1        0.0000
     45 H           1.8539   -1.5221   -0.2150 H       1  UNL1        0.0000
     46 H          -2.0175    0.8053   -0.9665 H       1  UNL1        0.0000
     47 H           0.4702   -0.1246   -2.3699 H       1  UNL1        0.0000
     48 H           1.9133    0.0856   -1.4062 H       1  UNL1        0.0000
     49 H           0.2917    1.1959    2.0277 H       1  UNL1        0.0000
     50 H          -0.3110   -1.5088    1.9123 H       1  UNL1        0.0000
     51 H          -1.3865   -1.8340   -0.8135 H       1  UNL1        0.0000
     52 H          -0.3250    2.2803    0.7577 H       1  UNL1        0.0000
     53 H           0.3105   -2.2485   -0.6741 H       1  UNL1        0.0000
     54 H          -0.7889    2.0056   -1.0503 H       1  UNL1        0.0000
     55 H           0.3105   -2.2485   -0.6741 H       1  UNL1        0.0000
     56 H           1.8065    0.5879    1.5248 H       1  UNL1        0.0000
     57 H           1.2806   -1.3394   -1.6970 H       1  UNL1        0.0000
     58 H          -1.6138   -0.5233   -1.7742 H       1  UNL1        0.0000
     59 H           0.6709   -0.3310    2.3200 H       1  UNL1        0.0000
     60 H          -1.7521    1.7870    0.2334 H       1  UNL1        0.0000
     61 H           0.7941    1.3738   -1.7551 H       1  UNL1        0.0000
     62 H           0.7941    1.3738   -1.7551 H       1  UNL1        0.0000
     63 H           0.6561    2.4197   -0.4811 H       1  UNL1        0.0000
     64 H           2.4270   -0.0495    0.1530 H       1  UNL1        0.0000
     65 H          -0.8091   -2.2873    0.5923 H       1  UNL1        0.0000
     66 H          -2.1682    0.3810    0.9030 H       1  UNL1        0.0000
     67 H           1.2230    1.8987    0.9233 H       1  UNL1        0.0000
     68 EU          0.0000    0.0000    0.0000 Eu      1  UNL1        0.0000
@<TRIPOS>BOND
     1     1     2    2
     2     2     3   am
     3     3     4    1
     4     3     5    1
     5     5     6    1
     6     6     7    1
     7     2     8    1
     8     8     9   ar
     9     9    10   ar
    10     8    11   ar
    11    11    12   ar
    12    12    13   ar
    13    10    13   ar
    14    13    14   ar
    15    14    15   ar
    16    15    16   ar
    17    16    17   ar
    18    12    17   ar
    19    17    18   ar
    20    18    19   ar
    21    19    20    1
    22    20    21   ar
    23    21    22   ar
    24    22    23    1
    25    23    24    1
    26    23    25    1
    27    23    26    1
    28    26    27    1
    29    27    28    1
    30    28    29    1
    31    28    30    1
    32    22    31   ar
    33    28    31    1
    34    31    32   ar
    35    32    33   ar
    36    20    33   ar
    37    19    34   ar
    38    34    35   ar
    39    16    35   ar
    40     4    36    1
    41     4    37    1
    42     4    38    1
    43     5    39    1
    44     5    40    1
    45     6    41    1
    46     6    42    1
    47     7    43    1
    48     7    44    1
    49     7    45    1
    50     9    46    1
    51    10    47    1
    52    14    48    1
    53    15    49    1
    54    24    50    1
    55    24    51    1
    56    24    52    1
    57    25    53    1
    58    25    54    1
    59    25    55    1
    60    26    56    1
    61    26    57    1
    62    27    58    1
    63    27    59    1
    64    29    60    1
    65    29    61    1
    66    29    62    1
    67    30    63    1
    68    30    64    1
    69    30    65    1
    70    34    66    1
    71    35    67    1
    72    68     1    1
    73    68    33    1
    74    68    18    1
    75    68    11    1
@<TRIPOS>MOLECULE
*****
 68 75 0 0 0
SMALL
GASTEIGER

@<TRIPOS>ATOM
      1 O           0.0000    0.0000    0.0000 O.2     1  UNL1        0.0000
      2 C           0.0000    0.0000    0.0000 C.2     1  UNL1        0.0000
      3 N           0.0000    0.0000    0.0000 N.am    1  UNL1        0.0000
      4 C           0.0000    0.0000    0.0000 C.3     1  UNL1        0.0000
      5 C           0.0000    0.0000    0.0000 C.3     1  UNL1        0.0000
      6 C           0.0000    0.0000    0.0000 C.3     1  UNL1        0.0000
      7 C           0.0000    0.0000    0.0000 C.3     1  UNL1        0.0000
      8 C           0.0000    0.0000    0.0000 C.ar    1  UNL1        0.0000
      9 C           0.0000    0.0000    0.0000 C.ar    1  UNL1        0.0000
     10 C           0.0000    0.0000    0.0000 C.ar    1  UNL1        0.0000
     11 N           0.0000    0.0000    0.0000 N.ar    1  UNL1        0.0000
     12 C           0.0000    0.0000    0.0000 C.ar    1  UNL1        0.0000
     13 C           0.0000    0.0000    0.0000 C.ar    1  UNL1        0.0000
     14 C           0.0000    0.0000    0.0000 C.ar    1  UNL1        0.0000
     15 C           0.0000    0.0000    0.0000 C.ar    1  UNL1        0.0000
     16 C           0.0000    0.0000    0.0000 C.ar    1  UNL1        0.0000
     17 C           0.0000    0.0000    0.0000 C.ar    1  UNL1        0.0000
     18 N           0.0000    0.0000    0.0000 N.ar    1  UNL1        0.0000
     19 C           0.0000    0.0000    0.0000 C.ar    1  UNL1        0.0000
     20 C           0.0000    0.0000    0.0000 C.ar    1  UNL1        0.0000
     21 N           0.0000    0.0000    0.0000 N.ar    1  UNL1        0.0000
     22 C           0.0000    0.0000    0.0000 C.ar    1  UNL1        0.0000
     23 C           0.0000    0.0000    0.0000 C.3     1  UNL1        0.0000
     24 C           0.0000    0.0000    0.0000 C.3     1  UNL1        0.0000
     25 C           0.0000    0.0000    0.0000 C.3     1  UNL1        0.0000
     26 C           0.0000    0.0000    0.0000 C.3     1  UNL1        0.0000
     27 C           0.0000    0.0000    0.0000 C.3     1  UNL1        0.0000
     28 C           0.0000    0.0000    0.0000 C.3     1  UNL1        0.0000
     29 C           0.0000    0.0000    0.0000 C.3     1  UNL1        0.0000
     30 C           0.0000    0.0000    0.0000 C.3     1  UNL1        0.0000
     31 C           0.0000    0.0000    0.0000 C.ar    1  UNL1        0.0000
     32 N           0.0000    0.0000    0.0000 N.ar    1  UNL1        0.0000
     33 N           0.0000    0.0000    0.0000 N.ar    1  UNL1        0.0000
     34 C           0.0000    0.0000    0.0000 C.ar    1  UNL1        0.0000
     35 C           0.0000    0.0000    0.0000 C.ar    1  UNL1        0.0000
     36 H          -1.7847   -1.1573    1.1565 H       1  UNL1        0.0000
     37 H           0.7868   -2.1562    0.9251 H       1  UNL1        0.0000
     38 H          -1.2394    1.4170    1.7278 H       1  UNL1        0.0000
     39 H          -0.3457   -1.4219   -1.9899 H       1  UNL1        0.0000
     40 H          -0.9970   -0.0810    2.1749 H       1  UNL1        0.0000
     41 H           1.7800   -1.0192    1.3548 H       1  UNL1        0.0000
     42 H          -2.3424   -0.6421   -0.2997 H       1  UNL1        0.0000
     43 H          -0.8072    0.8209   -2.1561 H       1  UNL1        0.0000
     44 H           1.9578    1.3716   -0.4002 H       1  UNL1        0.0000
     45 H           1.8418   -1.5449   -0.2120 H       1  UNL1        0.0000
     46 H          -2.0119    0.8191   -0.9689 H       1  UNL1        0.0000
     47 H           0.4838   -0.1237   -2.3668 H       1  UNL1        0.0000
     48 H           1.9188    0.0793   -1.3987 H       1  UNL1        0.0000
     49 H           0.3026    1.1918    2.0261 H       1  UNL1        0.0000
     50 H          -0.3147   -1.5133    1.9059 H       1  UNL1        0.0000
     51 H          -1.3992   -1.8171   -0.8181 H       1  UNL1        0.0000
     52 H          -0.3079    2.2953    0.7835 H       1  UNL1        0.0000
     53 H           0.2948   -2.2507   -0.6792 H       1  UNL1        0.0000
     54 H          -0.7866    2.0071   -1.0559 H       1  UNL1        0.0000
     55 H           0.2948   -2.2507   -0.6792 H       1  UNL1        0.0000
     56 H           1.8124    0.5706    1.5231 H       1  UNL1        0.0000
     57 H           1.2770   -1.3452   -1.6964 H       1  UNL1        0.0000
     58 H          -1.6177   -0.5072   -1.7724 H       1  UNL1        0.0000
     59 H           0.6689   -0.3395    2.3194 H       1  UNL1        0.0000
     60 H          -1.7275    1.7940    0.2380 H       1  UNL1        0.0000
     61 H           0.8072    1.3745   -1.7498 H       1  UNL1        0.0000
     62 H           0.8072    1.3745   -1.7498 H       1  UNL1        0.0000
     63 H           0.6594    2.4051   -0.4765 H       1  UNL1        0.0000
     64 H           2.4250   -0.0776    0.1521 H       1  UNL1        0.0000
     65 H          -0.8179   -2.2899    0.5913 H       1  UNL1        0.0000
     66 H          -2.1650    0.3941    0.9117 H       1  UNL1        0.0000
     67 H           1.2409    1.9019    0.9303 H       1  UNL1        0.0000
     68 EU          0.0000    0.0000    0.0000 Eu      1  UNL1        0.0000
@<TRIPOS>BOND
     1     1     2    2
     2     2     3   am
     3     3     4    1
     4     3     5    1
     5     5     6    1
     6     6     7    1
     7     2     8    1
     8     8     9   ar
     9     9    10   ar
    10     8    11   ar
    11    11    12   ar
    12    12    13   ar
    13    10    13   ar
    14    13    14   ar
    15    14    15   ar
    16    15    16   ar
    17    16    17   ar
    18    12    17   ar
    19    17    18   ar
    20    18    19   ar
    21    19    20    1
    22    20    21   ar
    23    21    22   ar
    24    22    23    1
    25    23    24    1
    26    23    25    1
    27    23    26    1
    28    26    27    1
    29    27    28    1
    30    28    29    1
    31    28    30    1
    32    22    31   ar
    33    28    31    1
    34    31    32   ar
    35    32    33   ar
    36    20    33   ar
    37    19    34   ar
    38    34    35   ar
    39    16    35   ar
    40     4    36    1
    41     4    37    1
    42     4    38    1
    43     5    39    1
    44     5    40    1
    45     6    41    1
    46     6    42    1
    47     7    43    1
    48     7    44    1
    49     7    45    1
    50     9    46    1
    51    10    47    1
    52    14    48    1
    53    15    49    1
    54    24    50    1
    55    24    51    1
    56    24    52    1
    57    25    53    1
    58    25    54    1
    59    25    55    1
    60    26    56    1
    61    26    57    1
    62    27    58    1
    63    27    59    1
    64    29    60    1
    65    29    61    1
    66    29    62    1
    67    30    63    1
    68    30    64    1
    69    30    65    1
    70    34    66    1
    71    35    67    1
    72    68     1    1
    73    68    33    1
    74    68    18    1
    75    68    11    1
@<TRIPOS>MOLECULE
*****
 68 75 0 0 0
SMALL
GASTEIGER

@<TRIPOS>ATOM
      1 O           0.0000    0.0000    0.0000 O.2     1  UNL1        0.0000
      2 C           0.0000    0.0000    0.0000 C.2     1  UNL1        0.0000
      3 N           0.0000    0.0000    0.0000 N.am    1  UNL1        0.0000
      4 C           0.0000    0.0000    0.0000 C.3     1  UNL1        0.0000
      5 C           0.0000    0.0000    0.0000 C.3     1  UNL1        0.0000
      6 C           0.0000    0.0000    0.0000 C.3     1  UNL1        0.0000
      7 C           0.0000    0.0000    0.0000 C.3     1  UNL1        0.0000
      8 C           0.0000    0.0000    0.0000 C.ar    1  UNL1        0.0000
      9 C           0.0000    0.0000    0.0000 C.ar    1  UNL1        0.0000
     10 C           0.0000    0.0000    0.0000 C.ar    1  UNL1        0.0000
     11 N           0.0000    0.0000    0.0000 N.ar    1  UNL1        0.0000
     12 C           0.0000    0.0000    0.0000 C.ar    1  UNL1        0.0000
     13 C           0.0000    0.0000    0.0000 C.ar    1  UNL1        0.0000
     14 C           0.0000    0.0000    0.0000 C.ar    1  UNL1        0.0000
     15 C           0.0000    0.0000    0.0000 C.ar    1  UNL1        0.0000
     16 C           0.0000    0.0000    0.0000 C.ar    1  UNL1        0.0000
     17 C           0.0000    0.0000    0.0000 C.ar    1  UNL1        0.0000
     18 N           0.0000    0.0000    0.0000 N.ar    1  UNL1        0.0000
     19 C           0.0000    0.0000    0.0000 C.ar    1  UNL1        0.0000
     20 C           0.0000    0.0000    0.0000 C.ar    1  UNL1        0.0000
     21 N           0.0000    0.0000    0.0000 N.ar    1  UNL1        0.0000
     22 C           0.0000    0.0000    0.0000 C.ar    1  UNL1        0.0000
     23 C           0.0000    0.0000    0.0000 C.3     1  UNL1        0.0000
     24 C           0.0000    0.0000    0.0000 C.3     1  UNL1        0.0000
     25 C           0.0000    0.0000    0.0000 C.3     1  UNL1        0.0000
     26 C           0.0000    0.0000    0.0000 C.3     1  UNL1        0.0000
     27 C           0.0000    0.0000    0.0000 C.3     1  UNL1        0.0000
     28 C           0.0000    0.0000    0.0000 C.3     1  UNL1        0.0000
     29 C           0.0000    0.0000    0.0000 C.3     1  UNL1        0.0000
     30 C           0.0000    0.0000    0.0000 C.3     1  UNL1        0.0000
     31 C           0.0000    0.0000    0.0000 C.ar    1  UNL1        0.0000
     32 N           0.0000    0.0000    0.0000 N.ar    1  UNL1        0.0000
     33 N           0.0000    0.0000    0.0000 N.ar    1  UNL1        0.0000
     34 C           0.0000    0.0000    0.0000 C.ar    1  UNL1        0.0000
     35 C           0.0000    0.0000    0.0000 C.ar    1  UNL1        0.0000
     36 H          -1.7936   -1.1528    1.1449 H       1  UNL1        0.0000
     37 H           0.7726   -2.1546    0.9259 H       1  UNL1        0.0000
     38 H          -1.2462    1.4180    1.7299 H       1  UNL1        0.0000
     39 H          -0.3440   -1.4285   -2.0060 H       1  UNL1        0.0000
     40 H          -1.0012   -0.0832    2.1703 H       1  UNL1        0.0000
     41 H           1.7744   -1.0268    1.3484 H       1  UNL1        0.0000
     42 H          -2.3450   -0.6286   -0.3092 H       1  UNL1        0.0000
     43 H          -0.8027    0.8359   -2.1480 H       1  UNL1        0.0000
     44 H           1.9632    1.3655   -0.3963 H       1  UNL1        0.0000
     45 H           1.8365   -1.5490   -0.2120 H       1  UNL1        0.0000
     46 H          -2.0028    0.8318   -0.9778 H       1  UNL1        0.0000
     47 H           0.4816   -0.1215   -2.3659 H       1  UNL1        0.0000
     48 H           1.9186    0.0755   -1.3980 H       1  UNL1        0.0000
     49 H           0.2868    1.1970    2.0310 H       1  UNL1        0.0000
     50 H          -0.3386   -1.5233    1.9013 H       1  UNL1        0.0000
     51 H          -1.4043   -1.8165   -0.8227 H       1  UNL1        0.0000
     52 H          -0.3074    2.2753    0.7671 H       1  UNL1        0.0000
     53 H           0.2897   -2.2509   -0.6799 H       1  UNL1        0.0000
     54 H          -0.7663    2.0153   -1.0467 H       1  UNL1        0.0000
     55 H           0.2897   -2.2509   -0.6799 H       1  UNL1        0.0000
     56 H           1.8054    0.5593    1.5342 H       1  UNL1        0.0000
     57 H           1.2750   -1.3460   -1.6971 H       1  UNL1        0.0000
     58 H          -1.6066   -0.5024   -1.7803 H       1  UNL1        0.0000
     59 H           0.6621   -0.3619    2.3168 H       1  UNL1        0.0000
     60 H          -1.7356    1.7977    0.2339 H       1  UNL1        0.0000
     61 H           0.8142    1.3750   -1.7434 H       1  UNL1        0.0000
     62 H           0.8142    1.3750   -1.7434 H       1  UNL1        0.0000
     63 H           0.6799    2.4151   -0.4700 H       1  UNL1        0.0000
     64 H           2.4228   -0.0833    0.1572 H       1  UNL1        0.0000
     65 H          -0.8326   -2.2915    0.5817 H       1  UNL1        0.0000
     66 H          -2.1665    0.3949    0.9023 H       1  UNL1        0.0000
     67 H           1.2416    1.8929    0.9361 H       1  UNL1        0.0000
     68 EU          0.0000    0.0000    0.0000 Eu      1  UNL1        0.0000
@<TRIPOS>BOND
     1     1     2    2
     2     2     3   am
     3     3     4    1
     4     3     5    1
     5     5     6    1
     6     6     7    1
     7     2     8    1
     8     8     9   ar
     9     9    10   ar
    10     8    11   ar
    11    11    12   ar
    12    12    13   ar
    13    10    13   ar
    14    13    14   ar
    15    14    15   ar
    16    15    16   ar
    17    16    17   ar
    18    12    17   ar
    19    17    18   ar
    20    18    19   ar
    21    19    20    1
    22    20    21   ar
    23    21    22   ar
    24    22    23    1
    25    23    24    1
    26    23    25    1
    27    23    26    1
    28    26    27    1
    29    27    28    1
    30    28    29    1
    31    28    30    1
    32    22    31   ar
    33    28    31    1
    34    31    32   ar
    35    32    33   ar
    36    20    33   ar
    37    19    34   ar
    38    34    35   ar
    39    16    35   ar
    40     4    36    1
    41     4    37    1
    42     4    38    1
    43     5    39    1
    44     5    40    1
    45     6    41    1
    46     6    42    1
    47     7    43    1
    48     7    44    1
    49     7    45    1
    50     9    46    1
    51    10    47    1
    52    14    48    1
    53    15    49    1
    54    24    50    1
    55    24    51    1
    56    24    52    1
    57    25    53    1
    58    25    54    1
    59    25    55    1
    60    26    56    1
    61    26    57    1
    62    27    58    1
    63    27    59    1
    64    29    60    1
    65    29    61    1
    66    29    62    1
    67    30    63    1
    68    30    64    1
    69    30    65    1
    70    34    66    1
    71    35    67    1
    72    68     1    1
    73    68    33    1
    74    68    18    1
    75    68    11    1
@<TRIPOS>MOLECULE
*****
 68 75 0 0 0
SMALL
GASTEIGER

@<TRIPOS>ATOM
      1 O           0.0000    0.0000    0.0000 O.2     1  UNL1        0.0000
      2 C           0.0000    0.0000    0.0000 C.2     1  UNL1        0.0000
      3 N           0.0000    0.0000    0.0000 N.am    1  UNL1        0.0000
      4 C           0.0000    0.0000    0.0000 C.3     1  UNL1        0.0000
      5 C           0.0000    0.0000    0.0000 C.3     1  UNL1        0.0000
      6 C           0.0000    0.0000    0.0000 C.3     1  UNL1        0.0000
      7 C           0.0000    0.0000    0.0000 C.3     1  UNL1        0.0000
      8 C           0.0000    0.0000    0.0000 C.ar    1  UNL1        0.0000
      9 C           0.0000    0.0000    0.0000 C.ar    1  UNL1        0.0000
     10 C           0.0000    0.0000    0.0000 C.ar    1  UNL1        0.0000
     11 N           0.0000    0.0000    0.0000 N.ar    1  UNL1        0.0000
     12 C           0.0000    0.0000    0.0000 C.ar    1  UNL1        0.0000
     13 C           0.0000    0.0000    0.0000 C.ar    1  UNL1        0.0000
     14 C           0.0000    0.0000    0.0000 C.ar    1  UNL1        0.0000
     15 C           0.0000    0.0000    0.0000 C.ar    1  UNL1        0.0000
     16 C           0.0000    0.0000    0.0000 C.ar    1  UNL1        0.0000
     17 C           0.0000    0.0000    0.0000 C.ar    1  UNL1        0.0000
     18 N           0.0000    0.0000    0.0000 N.ar    1  UNL1        0.0000
     19 C           0.0000    0.0000    0.0000 C.ar    1  UNL1        0.0000
     20 C           0.0000    0.0000    0.0000 C.ar    1  UNL1        0.0000
     21 N           0.0000    0.0000    0.0000 N.ar    1  UNL1        0.0000
     22 C           0.0000    0.0000    0.0000 C.ar    1  UNL1        0.0000
     23 C           0.0000    0.0000    0.0000 C.3     1  UNL1        0.0000
     24 C           0.0000    0.0000    0.0000 C.3     1  UNL1        0.0000
     25 C           0.0000    0.0000    0.0000 C.3     1  UNL1        0.0000
     26 C           0.0000    0.0000    0.0000 C.3     1  UNL1        0.0000
     27 C           0.0000    0.0000    0.0000 C.3     1  UNL1        0.0000
     28 C           0.0000    0.0000    0.0000 C.3     1  UNL1        0.0000
     29 C           0.0000    0.0000    0.0000 C.3     1  UNL1        0.0000
     30 C           0.0000    0.0000    0.0000 C.3     1  UNL1        0.0000
     31 C           0.0000    0.0000    0.0000 C.ar    1  UNL1        0.0000
     32 N           0.0000    0.0000    0.0000 N.ar    1  UNL1        0.0000
     33 N           0.0000    0.0000    0.0000 N.ar    1  UNL1        0.0000
     34 C           0.0000    0.0000    0.0000 C.ar    1  UNL1        0.0000
     35 C           0.0000    0.0000    0.0000 C.ar    1  UNL1        0.0000
     36 H          -1.7900   -1.1611    1.1512 H       1  UNL1        0.0000
     37 H           0.7855   -2.1490    0.9315 H       1  UNL1        0.0000
     38 H          -1.2411    1.4265    1.7253 H       1  UNL1        0.0000
     39 H          -0.3398   -1.4322   -1.9938 H       1  UNL1        0.0000
     40 H          -1.0007   -0.0774    2.1739 H       1  UNL1        0.0000
     41 H           1.7843   -1.0120    1.3515 H       1  UNL1        0.0000
     42 H          -2.3507   -0.6353   -0.3038 H       1  UNL1        0.0000
     43 H          -0.8021    0.8250   -2.1516 H       1  UNL1        0.0000
     44 H           1.9605    1.3687   -0.4036 H       1  UNL1        0.0000
     45 H           1.8416   -1.5436   -0.2131 H       1  UNL1        0.0000
     46 H          -2.0056    0.8224   -0.9798 H       1  UNL1        0.0000
     47 H           0.4832   -0.1271   -2.3677 H       1  UNL1        0.0000
     48 H           1.9190    0.0712   -1.3971 H       1  UNL1        0.0000
     49 H           0.2961    1.1910    2.0340 H       1  UNL1        0.0000
     50 H          -0.3272   -1.5125    1.9076 H       1  UNL1        0.0000
     51 H          -1.4020   -1.8195   -0.8118 H       1  UNL1        0.0000
     52 H          -0.3089    2.2796    0.7637 H       1  UNL1        0.0000
     53 H           0.2930   -2.2548   -0.6709 H       1  UNL1        0.0000
     54 H          -0.7666    2.0103   -1.0545 H       1  UNL1        0.0000
     55 H           0.2930   -2.2548   -0.6709 H       1  UNL1        0.0000
     56 H           1.8059    0.5730    1.5328 H       1  UNL1        0.0000
     57 H           1.2720   -1.3497   -1.6955 H       1  UNL1        0.0000
     58 H          -1.6085   -0.5132   -1.7773 H       1  UNL1        0.0000
     59 H           0.6633   -0.3409    2.3136 H       1  UNL1        0.0000
     60 H          -1.7358    1.7905    0.2306 H       1  UNL1        0.0000
     61 H           0.8121    1.3695   -1.7495 H       1  UNL1        0.0000
     62 H           0.8121    1.3695   -1.7495 H       1  UNL1        0.0000
     63 H           0.6753    2.4182   -0.4722 H       1  UNL1        0.0000
     64 H           2.4247   -0.0729    0.1583 H       1  UNL1        0.0000
     65 H          -0.8230   -2.2921    0.5958 H       1  UNL1        0.0000
     66 H          -2.1619    0.3905    0.9137 H       1  UNL1        0.0000
     67 H           1.2403    1.8988    0.9272 H       1  UNL1        0.0000
     68 EU          0.0000    0.0000    0.0000 Eu      1  UNL1        0.0000
@<TRIPOS>BOND
     1     1     2    2
     2     2     3   am
     3     3     4    1
     4     3     5    1
     5     5     6    1
     6     6     7    1
     7     2     8    1
     8     8     9   ar
     9     9    10   ar
    10     8    11   ar
    11    11    12   ar
    12    12    13   ar
    13    10    13   ar
    14    13    14   ar
    15    14    15   ar
    16    15    16   ar
    17    16    17   ar
    18    12    17   ar
    19    17    18   ar
    20    18    19   ar
    21    19    20    1
    22    20    21   ar
    23    21    22   ar
    24    22    23    1
    25    23    24    1
    26    23    25    1
    27    23    26    1
    28    26    27    1
    29    27    28    1
    30    28    29    1
    31    28    30    1
    32    22    31   ar
    33    28    31    1
    34    31    32   ar
    35    32    33   ar
    36    20    33   ar
    37    19    34   ar
    38    34    35   ar
    39    16    35   ar
    40     4    36    1
    41     4    37    1
    42     4    38    1
    43     5    39    1
    44     5    40    1
    45     6    41    1
    46     6    42    1
    47     7    43    1
    48     7    44    1
    49     7    45    1
    50     9    46    1
    51    10    47    1
    52    14    48    1
    53    15    49    1
    54    24    50    1
    55    24    51    1
    56    24    52    1
    57    25    53    1
    58    25    54    1
    59    25    55    1
    60    26    56    1
    61    26    57    1
    62    27    58    1
    63    27    59    1
    64    29    60    1
    65    29    61    1
    66    29    62    1
    67    30    63    1
    68    30    64    1
    69    30    65    1
    70    34    66    1
    71    35    67    1
    72    68     1    1
    73    68    33    1
    74    68    18    1
    75    68    11    1
@<TRIPOS>MOLECULE
*****
 68 75 0 0 0
SMALL
GASTEIGER

@<TRIPOS>ATOM
      1 O           0.0000    0.0000    0.0000 O.2     1  UNL1        0.0000
      2 C           0.0000    0.0000    0.0000 C.2     1  UNL1        0.0000
      3 N           0.0000    0.0000    0.0000 N.am    1  UNL1        0.0000
      4 C           0.0000    0.0000    0.0000 C.3     1  UNL1        0.0000
      5 C           0.0000    0.0000    0.0000 C.3     1  UNL1        0.0000
      6 C           0.0000    0.0000    0.0000 C.3     1  UNL1        0.0000
      7 C           0.0000    0.0000    0.0000 C.3     1  UNL1        0.0000
      8 C           0.0000    0.0000    0.0000 C.ar    1  UNL1        0.0000
      9 C           0.0000    0.0000    0.0000 C.ar    1  UNL1        0.0000
     10 C           0.0000    0.0000    0.0000 C.ar    1  UNL1        0.0000
     11 N           0.0000    0.0000    0.0000 N.ar    1  UNL1        0.0000
     12 C           0.0000    0.0000    0.0000 C.ar    1  UNL1        0.0000
     13 C           0.0000    0.0000    0.0000 C.ar    1  UNL1        0.0000
     14 C           0.0000    0.0000    0.0000 C.ar    1  UNL1        0.0000
     15 C           0.0000    0.0000    0.0000 C.ar    1  UNL1        0.0000
     16 C           0.0000    0.0000    0.0000 C.ar    1  UNL1        0.0000
     17 C           0.0000    0.0000    0.0000 C.ar    1  UNL1        0.0000
     18 N           0.0000    0.0000    0.0000 N.ar    1  UNL1        0.0000
     19 C           0.0000    0.0000    0.0000 C.ar    1  UNL1        0.0000
     20 C           0.0000    0.0000    0.0000 C.ar    1  UNL1        0.0000
     21 N           0.0000    0.0000    0.0000 N.ar    1  UNL1        0.0000
     22 C           0.0000    0.0000    0.0000 C.ar    1  UNL1        0.0000
     23 C           0.0000    0.0000    0.0000 C.3     1  UNL1        0.0000
     24 C           0.0000    0.0000    0.0000 C.3     1  UNL1        0.0000
     25 C           0.0000    0.0000    0.0000 C.3     1  UNL1        0.0000
     26 C           0.0000    0.0000    0.0000 C.3     1  UNL1        0.0000
     27 C           0.0000    0.0000    0.0000 C.3     1  UNL1        0.0000
     28 C           0.0000    0.0000    0.0000 C.3     1  UNL1        0.0000
     29 C           0.0000    0.0000    0.0000 C.3     1  UNL1        0.0000
     30 C           0.0000    0.0000    0.0000 C.3     1  UNL1        0.0000
     31 C           0.0000    0.0000    0.0000 C.ar    1  UNL1        0.0000
     32 N           0.0000    0.0000    0.0000 N.ar    1  UNL1        0.0000
     33 N           0.0000    0.0000    0.0000 N.ar    1  UNL1        0.0000
     34 C           0.0000    0.0000    0.0000 C.ar    1  UNL1        0.0000
     35 C           0.0000    0.0000    0.0000 C.ar    1  UNL1        0.0000
     36 H          -1.7831   -1.1518    1.1544 H       1  UNL1        0.0000
     37 H           0.7812   -2.1613    0.9233 H       1  UNL1        0.0000
     38 H          -1.2354    1.4150    1.7249 H       1  UNL1        0.0000
     39 H          -0.3504   -1.4296   -2.0032 H       1  UNL1        0.0000
     40 H          -0.9909   -0.0819    2.1821 H       1  UNL1        0.0000
     41 H           1.7726   -1.0191    1.3512 H       1  UNL1        0.0000
     42 H          -2.3414   -0.6444   -0.2893 H       1  UNL1        0.0000
     43 H          -0.8041    0.8347   -2.1461 H       1  UNL1        0.0000
     44 H           1.9628    1.3618   -0.3955 H       1  UNL1        0.0000
     45 H           1.8355   -1.5493   -0.2138 H       1  UNL1        0.0000
     46 H          -2.0091    0.8287   -0.9674 H       1  UNL1        0.0000
     47 H           0.4793   -0.1257   -2.3663 H       1  UNL1        0.0000
     48 H           1.9175    0.0693   -1.3982 H       1  UNL1        0.0000
     49 H           0.3038    1.1914    2.0370 H       1  UNL1        0.0000
     50 H          -0.3143   -1.5140    1.9038 H       1  UNL1        0.0000
     51 H          -1.3969   -1.8213   -0.8160 H       1  UNL1        0.0000
     52 H          -0.3086    2.2881    0.7557 H       1  UNL1        0.0000
     53 H           0.2845   -2.2520   -0.6783 H       1  UNL1        0.0000
     54 H          -0.7691    2.0154   -1.0454 H       1  UNL1        0.0000
     55 H           0.2845   -2.2520   -0.6783 H       1  UNL1        0.0000
     56 H           1.8103    0.5701    1.5233 H       1  UNL1        0.0000
     57 H           1.2703   -1.3517   -1.6986 H       1  UNL1        0.0000
     58 H          -1.6140   -0.5062   -1.7779 H       1  UNL1        0.0000
     59 H           0.6701   -0.3390    2.3203 H       1  UNL1        0.0000
     60 H          -1.7368    1.7962    0.2403 H       1  UNL1        0.0000
     61 H           0.8145    1.3689   -1.7484 H       1  UNL1        0.0000
     62 H           0.8145    1.3689   -1.7484 H       1  UNL1        0.0000
     63 H           0.6875    2.4146   -0.4781 H       1  UNL1        0.0000
     64 H           2.4256   -0.0857    0.1549 H       1  UNL1        0.0000
     65 H          -0.8269   -2.2882    0.5933 H       1  UNL1        0.0000
     66 H          -2.1610    0.3923    0.9097 H       1  UNL1        0.0000
     67 H           1.2413    1.9013    0.9296 H       1  UNL1        0.0000
     68 EU          0.0000    0.0000    0.0000 Eu      1  UNL1        0.0000
@<TRIPOS>BOND
     1     1     2    2
     2     2     3   am
     3     3     4    1
     4     3     5    1
     5     5     6    1
     6     6     7    1
     7     2     8    1
     8     8     9   ar
     9     9    10   ar
    10     8    11   ar
    11    11    12   ar
    12    12    13   ar
    13    10    13   ar
    14    13    14   ar
    15    14    15   ar
    16    15    16   ar
    17    16    17   ar
    18    12    17   ar
    19    17    18   ar
    20    18    19   ar
    21    19    20    1
    22    20    21   ar
    23    21    22   ar
    24    22    23    1
    25    23    24    1
    26    23    25    1
    27    23    26    1
    28    26    27    1
    29    27    28    1
    30    28    29    1
    31    28    30    1
    32    22    31   ar
    33    28    31    1
    34    31    32   ar
    35    32    33   ar
    36    20    33   ar
    37    19    34   ar
    38    34    35   ar
    39    16    35   ar
    40     4    36    1
    41     4    37    1
    42     4    38    1
    43     5    39    1
    44     5    40    1
    45     6    41    1
    46     6    42    1
    47     7    43    1
    48     7    44    1
    49     7    45    1
    50     9    46    1
    51    10    47    1
    52    14    48    1
    53    15    49    1
    54    24    50    1
    55    24    51    1
    56    24    52    1
    57    25    53    1
    58    25    54    1
    59    25    55    1
    60    26    56    1
    61    26    57    1
    62    27    58    1
    63    27    59    1
    64    29    60    1
    65    29    61    1
    66    29    62    1
    67    30    63    1
    68    30    64    1
    69    30    65    1
    70    34    66    1
    71    35    67    1
    72    68     1    1
    73    68    33    1
    74    68    18    1
    75    68    11    1
@<TRIPOS>MOLECULE
*****
 68 75 0 0 0
SMALL
GASTEIGER

@<TRIPOS>ATOM
      1 O           0.0000    0.0000    0.0000 O.2     1  UNL1        0.0000
      2 C           0.0000    0.0000    0.0000 C.2     1  UNL1        0.0000
      3 N           0.0000    0.0000    0.0000 N.am    1  UNL1        0.0000
      4 C           0.0000    0.0000    0.0000 C.3     1  UNL1        0.0000
      5 C           0.0000    0.0000    0.0000 C.3     1  UNL1        0.0000
      6 C           0.0000    0.0000    0.0000 C.3     1  UNL1        0.0000
      7 C           0.0000    0.0000    0.0000 C.3     1  UNL1        0.0000
      8 C           0.0000    0.0000    0.0000 C.ar    1  UNL1        0.0000
      9 C           0.0000    0.0000    0.0000 C.ar    1  UNL1        0.0000
     10 C           0.0000    0.0000    0.0000 C.ar    1  UNL1        0.0000
     11 N           0.0000    0.0000    0.0000 N.ar    1  UNL1        0.0000
     12 C           0.0000    0.0000    0.0000 C.ar    1  UNL1        0.0000
     13 C           0.0000    0.0000    0.0000 C.ar    1  UNL1        0.0000
     14 C           0.0000    0.0000    0.0000 C.ar    1  UNL1        0.0000
     15 C           0.0000    0.0000    0.0000 C.ar    1  UNL1        0.0000
     16 C           0.0000    0.0000    0.0000 C.ar    1  UNL1        0.0000
     17 C           0.0000    0.0000    0.0000 C.ar    1  UNL1        0.0000
     18 N           0.0000    0.0000    0.0000 N.ar    1  UNL1        0.0000
     19 C           0.0000    0.0000    0.0000 C.ar    1  UNL1        0.0000
     20 C           0.0000    0.0000    0.0000 C.ar    1  UNL1        0.0000
     21 N           0.0000    0.0000    0.0000 N.ar    1  UNL1        0.0000
     22 C           0.0000    0.0000    0.0000 C.ar    1  UNL1        0.0000
     23 C           0.0000    0.0000    0.0000 C.3     1  UNL1        0.0000
     24 C           0.0000    0.0000    0.0000 C.3     1  UNL1        0.0000
     25 C           0.0000    0.0000    0.0000 C.3     1  UNL1        0.0000
     26 C           0.0000    0.0000    0.0000 C.3     1  UNL1        0.0000
     27 C           0.0000    0.0000    0.0000 C.3     1  UNL1        0.0000
     28 C           0.0000    0.0000    0.0000 C.3     1  UNL1        0.0000
     29 C           0.0000    0.0000    0.0000 C.3     1  UNL1        0.0000
     30 C           0.0000    0.0000    0.0000 C.3     1  UNL1        0.0000
     31 C           0.0000    0.0000    0.0000 C.ar    1  UNL1        0.0000
     32 N           0.0000    0.0000    0.0000 N.ar    1  UNL1        0.0000
     33 N           0.0000    0.0000    0.0000 N.ar    1  UNL1        0.0000
     34 C           0.0000    0.0000    0.0000 C.ar    1  UNL1        0.0000
     35 C           0.0000    0.0000    0.0000 C.ar    1  UNL1        0.0000
     36 H          -1.7886   -1.1475    1.1623 H       1  UNL1        0.0000
     37 H           0.7787   -2.1600    0.9238 H       1  UNL1        0.0000
     38 H          -1.2275    1.4514    1.7264 H       1  UNL1        0.0000
     39 H          -0.3525   -1.4276   -2.0012 H       1  UNL1        0.0000
     40 H          -0.9977   -0.0695    2.1752 H       1  UNL1        0.0000
     41 H           1.7685   -1.0209    1.3568 H       1  UNL1        0.0000
     42 H          -2.3415   -0.6468   -0.2950 H       1  UNL1        0.0000
     43 H          -0.8054    0.8223   -2.1492 H       1  UNL1        0.0000
     44 H           1.9660    1.3595   -0.4077 H       1  UNL1        0.0000
     45 H           1.8349   -1.5517   -0.2123 H       1  UNL1        0.0000
     46 H          -2.0076    0.8254   -0.9720 H       1  UNL1        0.0000
     47 H           0.4816   -0.1294   -2.3690 H       1  UNL1        0.0000
     48 H           1.9166    0.0666   -1.4014 H       1  UNL1        0.0000
     49 H           0.3028    1.1950    2.0281 H       1  UNL1        0.0000
     50 H          -0.3170   -1.5051    1.9069 H       1  UNL1        0.0000
     51 H          -1.4099   -1.8068   -0.8069 H       1  UNL1        0.0000
     52 H          -0.3102    2.2957    0.7664 H       1  UNL1        0.0000
     53 H           0.2826   -2.2526   -0.6785 H       1  UNL1        0.0000
     54 H          -0.7662    2.0109   -1.0547 H       1  UNL1        0.0000
     55 H           0.2826   -2.2526   -0.6785 H       1  UNL1        0.0000
     56 H           1.8133    0.5688    1.5283 H       1  UNL1        0.0000
     57 H           1.2695   -1.3541   -1.6981 H       1  UNL1        0.0000
     58 H          -1.6241   -0.5105   -1.7707 H       1  UNL1        0.0000
     59 H           0.6662   -0.3324    2.3236 H       1  UNL1        0.0000
     60 H          -1.7344    1.8024    0.2281 H       1  UNL1        0.0000
     61 H           0.8113    1.3668   -1.7517 H       1  UNL1        0.0000
     62 H           0.8113    1.3668   -1.7517 H       1  UNL1        0.0000
     63 H           0.6763    2.4122   -0.4917 H       1  UNL1        0.0000
     64 H           2.4214   -0.0893    0.1553 H       1  UNL1        0.0000
     65 H          -0.8280   -2.2824    0.5959 H       1  UNL1        0.0000
     66 H          -2.1623    0.4034    0.9089 H       1  UNL1        0.0000
     67 H           1.2451    1.8964    0.9221 H       1  UNL1        0.0000
     68 EU          0.0000    0.0000    0.0000 Eu      1  UNL1        0.0000
@<TRIPOS>BOND
     1     1     2    2
     2     2     3   am
     3     3     4    1
     4     3     5    1
     5     5     6    1
     6     6     7    1
     7     2     8    1
     8     8     9   ar
     9     9    10   ar
    10     8    11   ar
    11    11    12   ar
    12    12    13   ar
    13    10    13   ar
    14    13    14   ar
    15    14    15   ar
    16    15    16   ar
    17    16    17   ar
    18    12    17   ar
    19    17    18   ar
    20    18    19   ar
    21    19    20    1
    22    20    21   ar
    23    21    22   ar
    24    22    23    1
    25    23    24    1
    26    23    25    1
    27    23    26    1
    28    26    27    1
    29    27    28    1
    30    28    29    1
    31    28    30    1
    32    22    31   ar
    33    28    31    1
    34    31    32   ar
    35    32    33   ar
    36    20    33   ar
    37    19    34   ar
    38    34    35   ar
    39    16    35   ar
    40     4    36    1
    41     4    37    1
    42     4    38    1
    43     5    39    1
    44     5    40    1
    45     6    41    1
    46     6    42    1
    47     7    43    1
    48     7    44    1
    49     7    45    1
    50     9    46    1
    51    10    47    1
    52    14    48    1
    53    15    49    1
    54    24    50    1
    55    24    51    1
    56    24    52    1
    57    25    53    1
    58    25    54    1
    59    25    55    1
    60    26    56    1
    61    26    57    1
    62    27    58    1
    63    27    59    1
    64    29    60    1
    65    29    61    1
    66    29    62    1
    67    30    63    1
    68    30    64    1
    69    30    65    1
    70    34    66    1
    71    35    67    1
    72    68     1    1
    73    68    33    1
    74    68    18    1
    75    68    11    1
@<TRIPOS>MOLECULE
*****
 68 75 0 0 0
SMALL
GASTEIGER

@<TRIPOS>ATOM
      1 O           0.0000    0.0000    0.0000 O.2     1  UNL1        0.0000
      2 C           0.0000    0.0000    0.0000 C.2     1  UNL1        0.0000
      3 N           0.0000    0.0000    0.0000 N.am    1  UNL1        0.0000
      4 C           0.0000    0.0000    0.0000 C.3     1  UNL1        0.0000
      5 C           0.0000    0.0000    0.0000 C.3     1  UNL1        0.0000
      6 C           0.0000    0.0000    0.0000 C.3     1  UNL1        0.0000
      7 C           0.0000    0.0000    0.0000 C.3     1  UNL1        0.0000
      8 C           0.0000    0.0000    0.0000 C.ar    1  UNL1        0.0000
      9 C           0.0000    0.0000    0.0000 C.ar    1  UNL1        0.0000
     10 C           0.0000    0.0000    0.0000 C.ar    1  UNL1        0.0000
     11 N           0.0000    0.0000    0.0000 N.ar    1  UNL1        0.0000
     12 C           0.0000    0.0000    0.0000 C.ar    1  UNL1        0.0000
     13 C           0.0000    0.0000    0.0000 C.ar    1  UNL1        0.0000
     14 C           0.0000    0.0000    0.0000 C.ar    1  UNL1        0.0000
     15 C           0.0000    0.0000    0.0000 C.ar    1  UNL1        0.0000
     16 C           0.0000    0.0000    0.0000 C.ar    1  UNL1        0.0000
     17 C           0.0000    0.0000    0.0000 C.ar    1  UNL1        0.0000
     18 N           0.0000    0.0000    0.0000 N.ar    1  UNL1        0.0000
     19 C           0.0000    0.0000    0.0000 C.ar    1  UNL1        0.0000
     20 C           0.0000    0.0000    0.0000 C.ar    1  UNL1        0.0000
     21 N           0.0000    0.0000    0.0000 N.ar    1  UNL1        0.0000
     22 C           0.0000    0.0000    0.0000 C.ar    1  UNL1        0.0000
     23 C           0.0000    0.0000    0.0000 C.3     1  UNL1        0.0000
     24 C           0.0000    0.0000    0.0000 C.3     1  UNL1        0.0000
     25 C           0.0000    0.0000    0.0000 C.3     1  UNL1        0.0000
     26 C           0.0000    0.0000    0.0000 C.3     1  UNL1        0.0000
     27 C           0.0000    0.0000    0.0000 C.3     1  UNL1        0.0000
     28 C           0.0000    0.0000    0.0000 C.3     1  UNL1        0.0000
     29 C           0.0000    0.0000    0.0000 C.3     1  UNL1        0.0000
     30 C           0.0000    0.0000    0.0000 C.3     1  UNL1        0.0000
     31 C           0.0000    0.0000    0.0000 C.ar    1  UNL1        0.0000
     32 N           0.0000    0.0000    0.0000 N.ar    1  UNL1        0.0000
     33 N           0.0000    0.0000    0.0000 N.ar    1  UNL1        0.0000
     34 C           0.0000    0.0000    0.0000 C.ar    1  UNL1        0.0000
     35 C           0.0000    0.0000    0.0000 C.ar    1  UNL1        0.0000
     36 H          -1.7903   -1.1514    1.1577 H       1  UNL1        0.0000
     37 H           0.7785   -2.1601    0.9234 H       1  UNL1        0.0000
     38 H          -1.2289    1.4168    1.7236 H       1  UNL1        0.0000
     39 H          -0.3606   -1.4316   -2.0020 H       1  UNL1        0.0000
     40 H          -0.9929   -0.0899    2.1804 H       1  UNL1        0.0000
     41 H           1.7781   -1.0228    1.3422 H       1  UNL1        0.0000
     42 H          -2.3487   -0.6267   -0.2952 H       1  UNL1        0.0000
     43 H          -0.8150    0.8402   -2.1420 H       1  UNL1        0.0000
     44 H           1.9668    1.3606   -0.4025 H       1  UNL1        0.0000
     45 H           1.8331   -1.5510   -0.2233 H       1  UNL1        0.0000
     46 H          -2.0076    0.8234   -0.9790 H       1  UNL1        0.0000
     47 H           0.4610   -0.1243   -2.3685 H       1  UNL1        0.0000
     48 H           1.9097    0.0723   -1.4094 H       1  UNL1        0.0000
     49 H           0.3085    1.1833    2.0273 H       1  UNL1        0.0000
     50 H          -0.3174   -1.5172    1.9088 H       1  UNL1        0.0000
     51 H          -1.4136   -1.8131   -0.8098 H       1  UNL1        0.0000
     52 H          -0.3115    2.2780    0.7500 H       1  UNL1        0.0000
     53 H           0.2795   -2.2471   -0.6812 H       1  UNL1        0.0000
     54 H          -0.7730    2.0174   -1.0380 H       1  UNL1        0.0000
     55 H           0.2795   -2.2471   -0.6812 H       1  UNL1        0.0000
     56 H           1.8140    0.5658    1.5224 H       1  UNL1        0.0000
     57 H           1.2608   -1.3484   -1.7049 H       1  UNL1        0.0000
     58 H          -1.6201   -0.4994   -1.7720 H       1  UNL1        0.0000
     59 H           0.6738   -0.3495    2.3169 H       1  UNL1        0.0000
     60 H          -1.7459    1.7904    0.2447 H       1  UNL1        0.0000
     61 H           0.8073    1.3713   -1.7492 H       1  UNL1        0.0000
     62 H           0.8073    1.3713   -1.7492 H       1  UNL1        0.0000
     63 H           0.6803    2.4140   -0.4730 H       1  UNL1        0.0000
     64 H           2.4239   -0.0917    0.1446 H       1  UNL1        0.0000
     65 H          -0.8237   -2.2890    0.5858 H       1  UNL1        0.0000
     66 H          -2.1610    0.3899    0.9235 H       1  UNL1        0.0000
     67 H           1.2381    1.8938    0.9294 H       1  UNL1        0.0000
     68 EU          0.0000    0.0000    0.0000 Eu      1  UNL1        0.0000
@<TRIPOS>BOND
     1     1     2    2
     2     2     3   am
     3     3     4    1
     4     3     5    1
     5     5     6    1
     6     6     7    1
     7     2     8    1
     8     8     9   ar
     9     9    10   ar
    10     8    11   ar
    11    11    12   ar
    12    12    13   ar
    13    10    13   ar
    14    13    14   ar
    15    14    15   ar
    16    15    16   ar
    17    16    17   ar
    18    12    17   ar
    19    17    18   ar
    20    18    19   ar
    21    19    20    1
    22    20    21   ar
    23    21    22   ar
    24    22    23    1
    25    23    24    1
    26    23    25    1
    27    23    26    1
    28    26    27    1
    29    27    28    1
    30    28    29    1
    31    28    30    1
    32    22    31   ar
    33    28    31    1
    34    31    32   ar
    35    32    33   ar
    36    20    33   ar
    37    19    34   ar
    38    34    35   ar
    39    16    35   ar
    40     4    36    1
    41     4    37    1
    42     4    38    1
    43     5    39    1
    44     5    40    1
    45     6    41    1
    46     6    42    1
    47     7    43    1
    48     7    44    1
    49     7    45    1
    50     9    46    1
    51    10    47    1
    52    14    48    1
    53    15    49    1
    54    24    50    1
    55    24    51    1
    56    24    52    1
    57    25    53    1
    58    25    54    1
    59    25    55    1
    60    26    56    1
    61    26    57    1
    62    27    58    1
    63    27    59    1
    64    29    60    1
    65    29    61    1
    66    29    62    1
    67    30    63    1
    68    30    64    1
    69    30    65    1
    70    34    66    1
    71    35    67    1
    72    68     1    1
    73    68    33    1
    74    68    18    1
    75    68    11    1
@<TRIPOS>MOLECULE
*****
 68 75 0 0 0
SMALL
GASTEIGER

@<TRIPOS>ATOM
      1 O           0.0000    0.0000    0.0000 O.2     1  UNL1        0.0000
      2 C           0.0000    0.0000    0.0000 C.2     1  UNL1        0.0000
      3 N           0.0000    0.0000    0.0000 N.am    1  UNL1        0.0000
      4 C           0.0000    0.0000    0.0000 C.3     1  UNL1        0.0000
      5 C           0.0000    0.0000    0.0000 C.3     1  UNL1        0.0000
      6 C           0.0000    0.0000    0.0000 C.3     1  UNL1        0.0000
      7 C           0.0000    0.0000    0.0000 C.3     1  UNL1        0.0000
      8 C           0.0000    0.0000    0.0000 C.ar    1  UNL1        0.0000
      9 C           0.0000    0.0000    0.0000 C.ar    1  UNL1        0.0000
     10 C           0.0000    0.0000    0.0000 C.ar    1  UNL1        0.0000
     11 N           0.0000    0.0000    0.0000 N.ar    1  UNL1        0.0000
     12 C           0.0000    0.0000    0.0000 C.ar    1  UNL1        0.0000
     13 C           0.0000    0.0000    0.0000 C.ar    1  UNL1        0.0000
     14 C           0.0000    0.0000    0.0000 C.ar    1  UNL1        0.0000
     15 C           0.0000    0.0000    0.0000 C.ar    1  UNL1        0.0000
     16 C           0.0000    0.0000    0.0000 C.ar    1  UNL1        0.0000
     17 C           0.0000    0.0000    0.0000 C.ar    1  UNL1        0.0000
     18 N           0.0000    0.0000    0.0000 N.ar    1  UNL1        0.0000
     19 C           0.0000    0.0000    0.0000 C.ar    1  UNL1        0.0000
     20 C           0.0000    0.0000    0.0000 C.ar    1  UNL1        0.0000
     21 N           0.0000    0.0000    0.0000 N.ar    1  UNL1        0.0000
     22 C           0.0000    0.0000    0.0000 C.ar    1  UNL1        0.0000
     23 C           0.0000    0.0000    0.0000 C.3     1  UNL1        0.0000
     24 C           0.0000    0.0000    0.0000 C.3     1  UNL1        0.0000
     25 C           0.0000    0.0000    0.0000 C.3     1  UNL1        0.0000
     26 C           0.0000    0.0000    0.0000 C.3     1  UNL1        0.0000
     27 C           0.0000    0.0000    0.0000 C.3     1  UNL1        0.0000
     28 C           0.0000    0.0000    0.0000 C.3     1  UNL1        0.0000
     29 C           0.0000    0.0000    0.0000 C.3     1  UNL1        0.0000
     30 C           0.0000    0.0000    0.0000 C.3     1  UNL1        0.0000
     31 C           0.0000    0.0000    0.0000 C.ar    1  UNL1        0.0000
     32 N           0.0000    0.0000    0.0000 N.ar    1  UNL1        0.0000
     33 N           0.0000    0.0000    0.0000 N.ar    1  UNL1        0.0000
     34 C           0.0000    0.0000    0.0000 C.ar    1  UNL1        0.0000
     35 C           0.0000    0.0000    0.0000 C.ar    1  UNL1        0.0000
     36 H          -1.7869   -1.1533    1.1564 H       1  UNL1        0.0000
     37 H           0.7882   -2.1503    0.9236 H       1  UNL1        0.0000
     38 H          -1.2396    1.4228    1.7271 H       1  UNL1        0.0000
     39 H          -0.3501   -1.4358   -1.9974 H       1  UNL1        0.0000
     40 H          -0.9960   -0.0759    2.1761 H       1  UNL1        0.0000
     41 H           1.7838   -1.0012    1.3609 H       1  UNL1        0.0000
     42 H          -2.3450   -0.6334   -0.2991 H       1  UNL1        0.0000
     43 H          -0.8070    0.8272   -2.1488 H       1  UNL1        0.0000
     44 H           1.9626    1.3666   -0.4045 H       1  UNL1        0.0000
     45 H           1.8333   -1.5398   -0.1996 H       1  UNL1        0.0000
     46 H          -2.0074    0.8249   -0.9751 H       1  UNL1        0.0000
     47 H           0.4769   -0.1307   -2.3667 H       1  UNL1        0.0000
     48 H           1.9139    0.0701   -1.4016 H       1  UNL1        0.0000
     49 H           0.3046    1.1950    2.0272 H       1  UNL1        0.0000
     50 H          -0.3166   -1.5090    1.9117 H       1  UNL1        0.0000
     51 H          -1.4017   -1.8201   -0.8055 H       1  UNL1        0.0000
     52 H          -0.3120    2.2800    0.7543 H       1  UNL1        0.0000
     53 H           0.2918   -2.2537   -0.6716 H       1  UNL1        0.0000
     54 H          -0.7739    2.0116   -1.0489 H       1  UNL1        0.0000
     55 H           0.2918   -2.2537   -0.6716 H       1  UNL1        0.0000
     56 H           1.8125    0.5786    1.5212 H       1  UNL1        0.0000
     57 H           1.2745   -1.3510   -1.6951 H       1  UNL1        0.0000
     58 H          -1.6146   -0.5121   -1.7759 H       1  UNL1        0.0000
     59 H           0.6734   -0.3339    2.3191 H       1  UNL1        0.0000
     60 H          -1.7426    1.7941    0.2343 H       1  UNL1        0.0000
     61 H           0.8078    1.3678   -1.7525 H       1  UNL1        0.0000
     62 H           0.8078    1.3678   -1.7525 H       1  UNL1        0.0000
     63 H           0.6765    2.4136   -0.4852 H       1  UNL1        0.0000
     64 H           2.4426   -0.0846    0.1559 H       1  UNL1        0.0000
     65 H          -0.8174   -2.2863    0.5990 H       1  UNL1        0.0000
     66 H          -2.1634    0.3923    0.9108 H       1  UNL1        0.0000
     67 H           1.2394    1.9036    0.9237 H       1  UNL1        0.0000
     68 EU          0.0000    0.0000    0.0000 Eu      1  UNL1        0.0000
@<TRIPOS>BOND
     1     1     2    2
     2     2     3   am
     3     3     4    1
     4     3     5    1
     5     5     6    1
     6     6     7    1
     7     2     8    1
     8     8     9   ar
     9     9    10   ar
    10     8    11   ar
    11    11    12   ar
    12    12    13   ar
    13    10    13   ar
    14    13    14   ar
    15    14    15   ar
    16    15    16   ar
    17    16    17   ar
    18    12    17   ar
    19    17    18   ar
    20    18    19   ar
    21    19    20    1
    22    20    21   ar
    23    21    22   ar
    24    22    23    1
    25    23    24    1
    26    23    25    1
    27    23    26    1
    28    26    27    1
    29    27    28    1
    30    28    29    1
    31    28    30    1
    32    22    31   ar
    33    28    31    1
    34    31    32   ar
    35    32    33   ar
    36    20    33   ar
    37    19    34   ar
    38    34    35   ar
    39    16    35   ar
    40     4    36    1
    41     4    37    1
    42     4    38    1
    43     5    39    1
    44     5    40    1
    45     6    41    1
    46     6    42    1
    47     7    43    1
    48     7    44    1
    49     7    45    1
    50     9    46    1
    51    10    47    1
    52    14    48    1
    53    15    49    1
    54    24    50    1
    55    24    51    1
    56    24    52    1
    57    25    53    1
    58    25    54    1
    59    25    55    1
    60    26    56    1
    61    26    57    1
    62    27    58    1
    63    27    59    1
    64    29    60    1
    65    29    61    1
    66    29    62    1
    67    30    63    1
    68    30    64    1
    69    30    65    1
    70    34    66    1
    71    35    67    1
    72    68     1    1
    73    68    33    1
    74    68    18    1
    75    68    11    1
@<TRIPOS>MOLECULE
*****
 68 75 0 0 0
SMALL
GASTEIGER

@<TRIPOS>ATOM
      1 O           0.0000    0.0000    0.0000 O.2     1  UNL1        0.0000
      2 C           0.0000    0.0000    0.0000 C.2     1  UNL1        0.0000
      3 N           0.0000    0.0000    0.0000 N.am    1  UNL1        0.0000
      4 C           0.0000    0.0000    0.0000 C.3     1  UNL1        0.0000
      5 C           0.0000    0.0000    0.0000 C.3     1  UNL1        0.0000
      6 C           0.0000    0.0000    0.0000 C.3     1  UNL1        0.0000
      7 C           0.0000    0.0000    0.0000 C.3     1  UNL1        0.0000
      8 C           0.0000    0.0000    0.0000 C.ar    1  UNL1        0.0000
      9 C           0.0000    0.0000    0.0000 C.ar    1  UNL1        0.0000
     10 C           0.0000    0.0000    0.0000 C.ar    1  UNL1        0.0000
     11 N           0.0000    0.0000    0.0000 N.ar    1  UNL1        0.0000
     12 C           0.0000    0.0000    0.0000 C.ar    1  UNL1        0.0000
     13 C           0.0000    0.0000    0.0000 C.ar    1  UNL1        0.0000
     14 C           0.0000    0.0000    0.0000 C.ar    1  UNL1        0.0000
     15 C           0.0000    0.0000    0.0000 C.ar    1  UNL1        0.0000
     16 C           0.0000    0.0000    0.0000 C.ar    1  UNL1        0.0000
     17 C           0.0000    0.0000    0.0000 C.ar    1  UNL1        0.0000
     18 N           0.0000    0.0000    0.0000 N.ar    1  UNL1        0.0000
     19 C           0.0000    0.0000    0.0000 C.ar    1  UNL1        0.0000
     20 C           0.0000    0.0000    0.0000 C.ar    1  UNL1        0.0000
     21 N           0.0000    0.0000    0.0000 N.ar    1  UNL1        0.0000
     22 C           0.0000    0.0000    0.0000 C.ar    1  UNL1        0.0000
     23 C           0.0000    0.0000    0.0000 C.3     1  UNL1        0.0000
     24 C           0.0000    0.0000    0.0000 C.3     1  UNL1        0.0000
     25 C           0.0000    0.0000    0.0000 C.3     1  UNL1        0.0000
     26 C           0.0000    0.0000    0.0000 C.3     1  UNL1        0.0000
     27 C           0.0000    0.0000    0.0000 C.3     1  UNL1        0.0000
     28 C           0.0000    0.0000    0.0000 C.3     1  UNL1        0.0000
     29 C           0.0000    0.0000    0.0000 C.3     1  UNL1        0.0000
     30 C           0.0000    0.0000    0.0000 C.3     1  UNL1        0.0000
     31 C           0.0000    0.0000    0.0000 C.ar    1  UNL1        0.0000
     32 N           0.0000    0.0000    0.0000 N.ar    1  UNL1        0.0000
     33 N           0.0000    0.0000    0.0000 N.ar    1  UNL1        0.0000
     34 C           0.0000    0.0000    0.0000 C.ar    1  UNL1        0.0000
     35 C           0.0000    0.0000    0.0000 C.ar    1  UNL1        0.0000
     36 H          -1.7853   -1.1501    1.1557 H       1  UNL1        0.0000
     37 H           0.7876   -2.1435    0.9457 H       1  UNL1        0.0000
     38 H          -1.2460    1.4289    1.7162 H       1  UNL1        0.0000
     39 H          -0.3457   -1.4451   -1.9891 H       1  UNL1        0.0000
     40 H          -1.0053   -0.0658    2.1719 H       1  UNL1        0.0000
     41 H           1.7804   -1.0011    1.3626 H       1  UNL1        0.0000
     42 H          -2.3514   -0.6444   -0.2955 H       1  UNL1        0.0000
     43 H          -0.8079    0.8032   -2.1562 H       1  UNL1        0.0000
     44 H           1.9630    1.3634   -0.4126 H       1  UNL1        0.0000
     45 H           1.8431   -1.5446   -0.1983 H       1  UNL1        0.0000
     46 H          -2.0034    0.8108   -0.9772 H       1  UNL1        0.0000
     47 H           0.4815   -0.1448   -2.3654 H       1  UNL1        0.0000
     48 H           1.9160    0.0662   -1.4021 H       1  UNL1        0.0000
     49 H           0.3011    1.2085    2.0200 H       1  UNL1        0.0000
     50 H          -0.3236   -1.4974    1.9212 H       1  UNL1        0.0000
     51 H          -1.3993   -1.8282   -0.7941 H       1  UNL1        0.0000
     52 H          -0.3103    2.2837    0.7399 H       1  UNL1        0.0000
     53 H           0.2961   -2.2563   -0.6604 H       1  UNL1        0.0000
     54 H          -0.7813    2.0007   -1.0781 H       1  UNL1        0.0000
     55 H           0.2961   -2.2563   -0.6604 H       1  UNL1        0.0000
     56 H           1.8093    0.5877    1.5223 H       1  UNL1        0.0000
     57 H           1.2767   -1.3605   -1.6850 H       1  UNL1        0.0000
     58 H          -1.6163   -0.5259   -1.7699 H       1  UNL1        0.0000
     59 H           0.6677   -0.3222    2.3193 H       1  UNL1        0.0000
     60 H          -1.7378    1.8005    0.2136 H       1  UNL1        0.0000
     61 H           0.8052    1.3580   -1.7617 H       1  UNL1        0.0000
     62 H           0.8052    1.3580   -1.7617 H       1  UNL1        0.0000
     63 H           0.6716    2.4103   -0.5007 H       1  UNL1        0.0000
     64 H           2.4232   -0.0727    0.1532 H       1  UNL1        0.0000
     65 H          -0.8148   -2.2899    0.6111 H       1  UNL1        0.0000
     66 H          -2.1649    0.3987    0.9071 H       1  UNL1        0.0000
     67 H           1.2400    1.9077    0.9078 H       1  UNL1        0.0000
     68 EU          0.0000    0.0000    0.0000 Eu      1  UNL1        0.0000
@<TRIPOS>BOND
     1     1     2    2
     2     2     3   am
     3     3     4    1
     4     3     5    1
     5     5     6    1
     6     6     7    1
     7     2     8    1
     8     8     9   ar
     9     9    10   ar
    10     8    11   ar
    11    11    12   ar
    12    12    13   ar
    13    10    13   ar
    14    13    14   ar
    15    14    15   ar
    16    15    16   ar
    17    16    17   ar
    18    12    17   ar
    19    17    18   ar
    20    18    19   ar
    21    19    20    1
    22    20    21   ar
    23    21    22   ar
    24    22    23    1
    25    23    24    1
    26    23    25    1
    27    23    26    1
    28    26    27    1
    29    27    28    1
    30    28    29    1
    31    28    30    1
    32    22    31   ar
    33    28    31    1
    34    31    32   ar
    35    32    33   ar
    36    20    33   ar
    37    19    34   ar
    38    34    35   ar
    39    16    35   ar
    40     4    36    1
    41     4    37    1
    42     4    38    1
    43     5    39    1
    44     5    40    1
    45     6    41    1
    46     6    42    1
    47     7    43    1
    48     7    44    1
    49     7    45    1
    50     9    46    1
    51    10    47    1
    52    14    48    1
    53    15    49    1
    54    24    50    1
    55    24    51    1
    56    24    52    1
    57    25    53    1
    58    25    54    1
    59    25    55    1
    60    26    56    1
    61    26    57    1
    62    27    58    1
    63    27    59    1
    64    29    60    1
    65    29    61    1
    66    29    62    1
    67    30    63    1
    68    30    64    1
    69    30    65    1
    70    34    66    1
    71    35    67    1
    72    68     1    1
    73    68    33    1
    74    68    18    1
    75    68    11    1
@<TRIPOS>MOLECULE
*****
 68 75 0 0 0
SMALL
GASTEIGER

@<TRIPOS>ATOM
      1 O           0.0000    0.0000    0.0000 O.2     1  UNL1        0.0000
      2 C           0.0000    0.0000    0.0000 C.2     1  UNL1        0.0000
      3 N           0.0000    0.0000    0.0000 N.am    1  UNL1        0.0000
      4 C           0.0000    0.0000    0.0000 C.3     1  UNL1        0.0000
      5 C           0.0000    0.0000    0.0000 C.3     1  UNL1        0.0000
      6 C           0.0000    0.0000    0.0000 C.3     1  UNL1        0.0000
      7 C           0.0000    0.0000    0.0000 C.3     1  UNL1        0.0000
      8 C           0.0000    0.0000    0.0000 C.ar    1  UNL1        0.0000
      9 C           0.0000    0.0000    0.0000 C.ar    1  UNL1        0.0000
     10 C           0.0000    0.0000    0.0000 C.ar    1  UNL1        0.0000
     11 N           0.0000    0.0000    0.0000 N.ar    1  UNL1        0.0000
     12 C           0.0000    0.0000    0.0000 C.ar    1  UNL1        0.0000
     13 C           0.0000    0.0000    0.0000 C.ar    1  UNL1        0.0000
     14 C           0.0000    0.0000    0.0000 C.ar    1  UNL1        0.0000
     15 C           0.0000    0.0000    0.0000 C.ar    1  UNL1        0.0000
     16 C           0.0000    0.0000    0.0000 C.ar    1  UNL1        0.0000
     17 C           0.0000    0.0000    0.0000 C.ar    1  UNL1        0.0000
     18 N           0.0000    0.0000    0.0000 N.ar    1  UNL1        0.0000
     19 C           0.0000    0.0000    0.0000 C.ar    1  UNL1        0.0000
     20 C           0.0000    0.0000    0.0000 C.ar    1  UNL1        0.0000
     21 N           0.0000    0.0000    0.0000 N.ar    1  UNL1        0.0000
     22 C           0.0000    0.0000    0.0000 C.ar    1  UNL1        0.0000
     23 C           0.0000    0.0000    0.0000 C.3     1  UNL1        0.0000
     24 C           0.0000    0.0000    0.0000 C.3     1  UNL1        0.0000
     25 C           0.0000    0.0000    0.0000 C.3     1  UNL1        0.0000
     26 C           0.0000    0.0000    0.0000 C.3     1  UNL1        0.0000
     27 C           0.0000    0.0000    0.0000 C.3     1  UNL1        0.0000
     28 C           0.0000    0.0000    0.0000 C.3     1  UNL1        0.0000
     29 C           0.0000    0.0000    0.0000 C.3     1  UNL1        0.0000
     30 C           0.0000    0.0000    0.0000 C.3     1  UNL1        0.0000
     31 C           0.0000    0.0000    0.0000 C.ar    1  UNL1        0.0000
     32 N           0.0000    0.0000    0.0000 N.ar    1  UNL1        0.0000
     33 N           0.0000    0.0000    0.0000 N.ar    1  UNL1        0.0000
     34 C           0.0000    0.0000    0.0000 C.ar    1  UNL1        0.0000
     35 C           0.0000    0.0000    0.0000 C.ar    1  UNL1        0.0000
     36 H          -1.7898   -1.1348    1.1756 H       1  UNL1        0.0000
     37 H           0.7892   -2.1414    0.9556 H       1  UNL1        0.0000
     38 H          -1.2389    1.4395    1.7124 H       1  UNL1        0.0000
     39 H          -0.3482   -1.4544   -1.9811 H       1  UNL1        0.0000
     40 H          -0.9971   -0.0575    2.1750 H       1  UNL1        0.0000
     41 H           1.7856   -0.9966    1.3618 H       1  UNL1        0.0000
     42 H          -2.3373   -0.6312   -0.2936 H       1  UNL1        0.0000
     43 H          -0.7961    0.8089   -2.1550 H       1  UNL1        0.0000
     44 H           1.9577    1.3601   -0.4060 H       1  UNL1        0.0000
     45 H           1.8411   -1.5471   -0.1942 H       1  UNL1        0.0000
     46 H          -2.0004    0.8202   -0.9875 H       1  UNL1        0.0000
     47 H           0.4792   -0.1557   -2.3648 H       1  UNL1        0.0000
     48 H           1.9174    0.0604   -1.3982 H       1  UNL1        0.0000
     49 H           0.3023    1.2088    2.0189 H       1  UNL1        0.0000
     50 H          -0.3175   -1.4919    1.9244 H       1  UNL1        0.0000
     51 H          -1.4027   -1.8233   -0.7834 H       1  UNL1        0.0000
     52 H          -0.3168    2.2896    0.7211 H       1  UNL1        0.0000
     53 H           0.2943   -2.2600   -0.6478 H       1  UNL1        0.0000
     54 H          -0.7722    2.0008   -1.0633 H       1  UNL1        0.0000
     55 H           0.2943   -2.2600   -0.6478 H       1  UNL1        0.0000
     56 H           1.8116    0.5931    1.5142 H       1  UNL1        0.0000
     57 H           1.2746   -1.3691   -1.6824 H       1  UNL1        0.0000
     58 H          -1.6121   -0.5277   -1.7757 H       1  UNL1        0.0000
     59 H           0.6711   -0.3203    2.3214 H       1  UNL1        0.0000
     60 H          -1.7483    1.7884    0.2171 H       1  UNL1        0.0000
     61 H           0.8144    1.3504   -1.7626 H       1  UNL1        0.0000
     62 H           0.8144    1.3504   -1.7626 H       1  UNL1        0.0000
     63 H           0.6810    2.4119   -0.5104 H       1  UNL1        0.0000
     64 H           2.4285   -0.0814    0.1510 H       1  UNL1        0.0000
     65 H          -0.8144   -2.2849    0.6205 H       1  UNL1        0.0000
     66 H          -2.1622    0.3975    0.9173 H       1  UNL1        0.0000
     67 H           1.2306    1.9142    0.9109 H       1  UNL1        0.0000
     68 EU          0.0000    0.0000    0.0000 Eu      1  UNL1        0.0000
@<TRIPOS>BOND
     1     1     2    2
     2     2     3   am
     3     3     4    1
     4     3     5    1
     5     5     6    1
     6     6     7    1
     7     2     8    1
     8     8     9   ar
     9     9    10   ar
    10     8    11   ar
    11    11    12   ar
    12    12    13   ar
    13    10    13   ar
    14    13    14   ar
    15    14    15   ar
    16    15    16   ar
    17    16    17   ar
    18    12    17   ar
    19    17    18   ar
    20    18    19   ar
    21    19    20    1
    22    20    21   ar
    23    21    22   ar
    24    22    23    1
    25    23    24    1
    26    23    25    1
    27    23    26    1
    28    26    27    1
    29    27    28    1
    30    28    29    1
    31    28    30    1
    32    22    31   ar
    33    28    31    1
    34    31    32   ar
    35    32    33   ar
    36    20    33   ar
    37    19    34   ar
    38    34    35   ar
    39    16    35   ar
    40     4    36    1
    41     4    37    1
    42     4    38    1
    43     5    39    1
    44     5    40    1
    45     6    41    1
    46     6    42    1
    47     7    43    1
    48     7    44    1
    49     7    45    1
    50     9    46    1
    51    10    47    1
    52    14    48    1
    53    15    49    1
    54    24    50    1
    55    24    51    1
    56    24    52    1
    57    25    53    1
    58    25    54    1
    59    25    55    1
    60    26    56    1
    61    26    57    1
    62    27    58    1
    63    27    59    1
    64    29    60    1
    65    29    61    1
    66    29    62    1
    67    30    63    1
    68    30    64    1
    69    30    65    1
    70    34    66    1
    71    35    67    1
    72    68     1    1
    73    68    33    1
    74    68    18    1
    75    68    11    1
@<TRIPOS>MOLECULE
*****
 68 75 0 0 0
SMALL
GASTEIGER

@<TRIPOS>ATOM
      1 O           0.0000    0.0000    0.0000 O.2     1  UNL1        0.0000
      2 C           0.0000    0.0000    0.0000 C.2     1  UNL1        0.0000
      3 N           0.0000    0.0000    0.0000 N.am    1  UNL1        0.0000
      4 C           0.0000    0.0000    0.0000 C.3     1  UNL1        0.0000
      5 C           0.0000    0.0000    0.0000 C.3     1  UNL1        0.0000
      6 C           0.0000    0.0000    0.0000 C.3     1  UNL1        0.0000
      7 C           0.0000    0.0000    0.0000 C.3     1  UNL1        0.0000
      8 C           0.0000    0.0000    0.0000 C.ar    1  UNL1        0.0000
      9 C           0.0000    0.0000    0.0000 C.ar    1  UNL1        0.0000
     10 C           0.0000    0.0000    0.0000 C.ar    1  UNL1        0.0000
     11 N           0.0000    0.0000    0.0000 N.ar    1  UNL1        0.0000
     12 C           0.0000    0.0000    0.0000 C.ar    1  UNL1        0.0000
     13 C           0.0000    0.0000    0.0000 C.ar    1  UNL1        0.0000
     14 C           0.0000    0.0000    0.0000 C.ar    1  UNL1        0.0000
     15 C           0.0000    0.0000    0.0000 C.ar    1  UNL1        0.0000
     16 C           0.0000    0.0000    0.0000 C.ar    1  UNL1        0.0000
     17 C           0.0000    0.0000    0.0000 C.ar    1  UNL1        0.0000
     18 N           0.0000    0.0000    0.0000 N.ar    1  UNL1        0.0000
     19 C           0.0000    0.0000    0.0000 C.ar    1  UNL1        0.0000
     20 C           0.0000    0.0000    0.0000 C.ar    1  UNL1        0.0000
     21 N           0.0000    0.0000    0.0000 N.ar    1  UNL1        0.0000
     22 C           0.0000    0.0000    0.0000 C.ar    1  UNL1        0.0000
     23 C           0.0000    0.0000    0.0000 C.3     1  UNL1        0.0000
     24 C           0.0000    0.0000    0.0000 C.3     1  UNL1        0.0000
     25 C           0.0000    0.0000    0.0000 C.3     1  UNL1        0.0000
     26 C           0.0000    0.0000    0.0000 C.3     1  UNL1        0.0000
     27 C           0.0000    0.0000    0.0000 C.3     1  UNL1        0.0000
     28 C           0.0000    0.0000    0.0000 C.3     1  UNL1        0.0000
     29 C           0.0000    0.0000    0.0000 C.3     1  UNL1        0.0000
     30 C           0.0000    0.0000    0.0000 C.3     1  UNL1        0.0000
     31 C           0.0000    0.0000    0.0000 C.ar    1  UNL1        0.0000
     32 N           0.0000    0.0000    0.0000 N.ar    1  UNL1        0.0000
     33 N           0.0000    0.0000    0.0000 N.ar    1  UNL1        0.0000
     34 C           0.0000    0.0000    0.0000 C.ar    1  UNL1        0.0000
     35 C           0.0000    0.0000    0.0000 C.ar    1  UNL1        0.0000
     36 H          -1.7960   -1.1419    1.1579 H       1  UNL1        0.0000
     37 H           0.7773   -2.1475    0.9448 H       1  UNL1        0.0000
     38 H          -1.2330    1.4347    1.7186 H       1  UNL1        0.0000
     39 H          -0.3584   -1.4467   -1.9879 H       1  UNL1        0.0000
     40 H          -1.0029   -0.0660    2.1765 H       1  UNL1        0.0000
     41 H           1.7769   -1.0106    1.3574 H       1  UNL1        0.0000
     42 H          -2.3499   -0.6155   -0.2962 H       1  UNL1        0.0000
     43 H          -0.8012    0.8171   -2.1540 H       1  UNL1        0.0000
     44 H           1.9658    1.3531   -0.4139 H       1  UNL1        0.0000
     45 H           1.8302   -1.5543   -0.2034 H       1  UNL1        0.0000
     46 H          -2.0011    0.8325   -0.9829 H       1  UNL1        0.0000
     47 H           0.4753   -0.1483   -2.3655 H       1  UNL1        0.0000
     48 H           1.9148    0.0494   -1.4024 H       1  UNL1        0.0000
     49 H           0.3055    1.2059    2.0213 H       1  UNL1        0.0000
     50 H          -0.3236   -1.4971    1.9189 H       1  UNL1        0.0000
     51 H          -1.4157   -1.8142   -0.7893 H       1  UNL1        0.0000
     52 H          -0.2924    2.2903    0.7511 H       1  UNL1        0.0000
     53 H           0.2765   -2.2586   -0.6567 H       1  UNL1        0.0000
     54 H          -0.7608    2.0086   -1.0670 H       1  UNL1        0.0000
     55 H           0.2765   -2.2586   -0.6567 H       1  UNL1        0.0000
     56 H           1.8121    0.5806    1.5201 H       1  UNL1        0.0000
     57 H           1.2636   -1.3723   -1.6901 H       1  UNL1        0.0000
     58 H          -1.6178   -0.5128   -1.7731 H       1  UNL1        0.0000
     59 H           0.6665   -0.3219    2.3165 H       1  UNL1        0.0000
     60 H          -1.7218    1.8052    0.2217 H       1  UNL1        0.0000
     61 H           0.8169    1.3502   -1.7622 H       1  UNL1        0.0000
     62 H           0.8169    1.3502   -1.7622 H       1  UNL1        0.0000
     63 H           0.6817    2.4072   -0.4964 H       1  UNL1        0.0000
     64 H           2.4260   -0.0887    0.1523 H       1  UNL1        0.0000
     65 H          -0.8312   -2.2818    0.6128 H       1  UNL1        0.0000
     66 H          -2.1639    0.4078    0.9098 H       1  UNL1        0.0000
     67 H           1.2401    1.8899    0.9114 H       1  UNL1        0.0000
     68 EU          0.0000    0.0000    0.0000 Eu      1  UNL1        0.0000
@<TRIPOS>BOND
     1     1     2    2
     2     2     3   am
     3     3     4    1
     4     3     5    1
     5     5     6    1
     6     6     7    1
     7     2     8    1
     8     8     9   ar
     9     9    10   ar
    10     8    11   ar
    11    11    12   ar
    12    12    13   ar
    13    10    13   ar
    14    13    14   ar
    15    14    15   ar
    16    15    16   ar
    17    16    17   ar
    18    12    17   ar
    19    17    18   ar
    20    18    19   ar
    21    19    20    1
    22    20    21   ar
    23    21    22   ar
    24    22    23    1
    25    23    24    1
    26    23    25    1
    27    23    26    1
    28    26    27    1
    29    27    28    1
    30    28    29    1
    31    28    30    1
    32    22    31   ar
    33    28    31    1
    34    31    32   ar
    35    32    33   ar
    36    20    33   ar
    37    19    34   ar
    38    34    35   ar
    39    16    35   ar
    40     4    36    1
    41     4    37    1
    42     4    38    1
    43     5    39    1
    44     5    40    1
    45     6    41    1
    46     6    42    1
    47     7    43    1
    48     7    44    1
    49     7    45    1
    50     9    46    1
    51    10    47    1
    52    14    48    1
    53    15    49    1
    54    24    50    1
    55    24    51    1
    56    24    52    1
    57    25    53    1
    58    25    54    1
    59    25    55    1
    60    26    56    1
    61    26    57    1
    62    27    58    1
    63    27    59    1
    64    29    60    1
    65    29    61    1
    66    29    62    1
    67    30    63    1
    68    30    64    1
    69    30    65    1
    70    34    66    1
    71    35    67    1
    72    68     1    1
    73    68    33    1
    74    68    18    1
    75    68    11    1
@<TRIPOS>MOLECULE
*****
 68 75 0 0 0
SMALL
GASTEIGER

@<TRIPOS>ATOM
      1 O           0.0000    0.0000    0.0000 O.2     1  UNL1        0.0000
      2 C           0.0000    0.0000    0.0000 C.2     1  UNL1        0.0000
      3 N           0.0000    0.0000    0.0000 N.am    1  UNL1        0.0000
      4 C           0.0000    0.0000    0.0000 C.3     1  UNL1        0.0000
      5 C           0.0000    0.0000    0.0000 C.3     1  UNL1        0.0000
      6 C           0.0000    0.0000    0.0000 C.3     1  UNL1        0.0000
      7 C           0.0000    0.0000    0.0000 C.3     1  UNL1        0.0000
      8 C           0.0000    0.0000    0.0000 C.ar    1  UNL1        0.0000
      9 C           0.0000    0.0000    0.0000 C.ar    1  UNL1        0.0000
     10 C           0.0000    0.0000    0.0000 C.ar    1  UNL1        0.0000
     11 N           0.0000    0.0000    0.0000 N.ar    1  UNL1        0.0000
     12 C           0.0000    0.0000    0.0000 C.ar    1  UNL1        0.0000
     13 C           0.0000    0.0000    0.0000 C.ar    1  UNL1        0.0000
     14 C           0.0000    0.0000    0.0000 C.ar    1  UNL1        0.0000
     15 C           0.0000    0.0000    0.0000 C.ar    1  UNL1        0.0000
     16 C           0.0000    0.0000    0.0000 C.ar    1  UNL1        0.0000
     17 C           0.0000    0.0000    0.0000 C.ar    1  UNL1        0.0000
     18 N           0.0000    0.0000    0.0000 N.ar    1  UNL1        0.0000
     19 C           0.0000    0.0000    0.0000 C.ar    1  UNL1        0.0000
     20 C           0.0000    0.0000    0.0000 C.ar    1  UNL1        0.0000
     21 N           0.0000    0.0000    0.0000 N.ar    1  UNL1        0.0000
     22 C           0.0000    0.0000    0.0000 C.ar    1  UNL1        0.0000
     23 C           0.0000    0.0000    0.0000 C.3     1  UNL1        0.0000
     24 C           0.0000    0.0000    0.0000 C.3     1  UNL1        0.0000
     25 C           0.0000    0.0000    0.0000 C.3     1  UNL1        0.0000
     26 C           0.0000    0.0000    0.0000 C.3     1  UNL1        0.0000
     27 C           0.0000    0.0000    0.0000 C.3     1  UNL1        0.0000
     28 C           0.0000    0.0000    0.0000 C.3     1  UNL1        0.0000
     29 C           0.0000    0.0000    0.0000 C.3     1  UNL1        0.0000
     30 C           0.0000    0.0000    0.0000 C.3     1  UNL1        0.0000
     31 C           0.0000    0.0000    0.0000 C.ar    1  UNL1        0.0000
     32 N           0.0000    0.0000    0.0000 N.ar    1  UNL1        0.0000
     33 N           0.0000    0.0000    0.0000 N.ar    1  UNL1        0.0000
     34 C           0.0000    0.0000    0.0000 C.ar    1  UNL1        0.0000
     35 C           0.0000    0.0000    0.0000 C.ar    1  UNL1        0.0000
     36 H          -1.7966   -1.1389    1.1655 H       1  UNL1        0.0000
     37 H           0.7778   -2.1506    0.9447 H       1  UNL1        0.0000
     38 H          -1.2409    1.4348    1.7211 H       1  UNL1        0.0000
     39 H          -0.3544   -1.4454   -1.9886 H       1  UNL1        0.0000
     40 H          -0.9984   -0.0609    2.1770 H       1  UNL1        0.0000
     41 H           1.7710   -1.0078    1.3628 H       1  UNL1        0.0000
     42 H          -2.3485   -0.6351   -0.2950 H       1  UNL1        0.0000
     43 H          -0.8047    0.8122   -2.1550 H       1  UNL1        0.0000
     44 H           1.9643    1.3570   -0.4182 H       1  UNL1        0.0000
     45 H           1.8344   -1.5522   -0.1990 H       1  UNL1        0.0000
     46 H          -2.0061    0.8145   -0.9898 H       1  UNL1        0.0000
     47 H           0.4768   -0.1489   -2.3668 H       1  UNL1        0.0000
     48 H           1.9170    0.0532   -1.4004 H       1  UNL1        0.0000
     49 H           0.3025    1.2116    2.0149 H       1  UNL1        0.0000
     50 H          -0.3208   -1.4949    1.9200 H       1  UNL1        0.0000
     51 H          -1.4170   -1.8232   -0.7834 H       1  UNL1        0.0000
     52 H          -0.3017    2.2853    0.7424 H       1  UNL1        0.0000
     53 H           0.2839   -2.2582   -0.6582 H       1  UNL1        0.0000
     54 H          -0.7651    1.9998   -1.0600 H       1  UNL1        0.0000
     55 H           0.2839   -2.2582   -0.6582 H       1  UNL1        0.0000
     56 H           1.8094    0.5816    1.5235 H       1  UNL1        0.0000
     57 H           1.2677   -1.3679   -1.6863 H       1  UNL1        0.0000
     58 H          -1.6186   -0.5201   -1.7670 H       1  UNL1        0.0000
     59 H           0.6639   -0.3163    2.3225 H       1  UNL1        0.0000
     60 H          -1.7411    1.8100    0.2285 H       1  UNL1        0.0000
     61 H           0.8121    1.3527   -1.7626 H       1  UNL1        0.0000
     62 H           0.8121    1.3527   -1.7626 H       1  UNL1        0.0000
     63 H           0.6781    2.4080   -0.5022 H       1  UNL1        0.0000
     64 H           2.4233   -0.0846    0.1573 H       1  UNL1        0.0000
     65 H          -0.8284   -2.2761    0.6129 H       1  UNL1        0.0000
     66 H          -2.1630    0.4089    0.9000 H       1  UNL1        0.0000
     67 H           1.2475    1.9036    0.9069 H       1  UNL1        0.0000
     68 EU          0.0000    0.0000    0.0000 Eu      1  UNL1        0.0000
@<TRIPOS>BOND
     1     1     2    2
     2     2     3   am
     3     3     4    1
     4     3     5    1
     5     5     6    1
     6     6     7    1
     7     2     8    1
     8     8     9   ar
     9     9    10   ar
    10     8    11   ar
    11    11    12   ar
    12    12    13   ar
    13    10    13   ar
    14    13    14   ar
    15    14    15   ar
    16    15    16   ar
    17    16    17   ar
    18    12    17   ar
    19    17    18   ar
    20    18    19   ar
    21    19    20    1
    22    20    21   ar
    23    21    22   ar
    24    22    23    1
    25    23    24    1
    26    23    25    1
    27    23    26    1
    28    26    27    1
    29    27    28    1
    30    28    29    1
    31    28    30    1
    32    22    31   ar
    33    28    31    1
    34    31    32   ar
    35    32    33   ar
    36    20    33   ar
    37    19    34   ar
    38    34    35   ar
    39    16    35   ar
    40     4    36    1
    41     4    37    1
    42     4    38    1
    43     5    39    1
    44     5    40    1
    45     6    41    1
    46     6    42    1
    47     7    43    1
    48     7    44    1
    49     7    45    1
    50     9    46    1
    51    10    47    1
    52    14    48    1
    53    15    49    1
    54    24    50    1
    55    24    51    1
    56    24    52    1
    57    25    53    1
    58    25    54    1
    59    25    55    1
    60    26    56    1
    61    26    57    1
    62    27    58    1
    63    27    59    1
    64    29    60    1
    65    29    61    1
    66    29    62    1
    67    30    63    1
    68    30    64    1
    69    30    65    1
    70    34    66    1
    71    35    67    1
    72    68     1    1
    73    68    33    1
    74    68    18    1
    75    68    11    1
@<TRIPOS>MOLECULE
*****
 68 75 0 0 0
SMALL
GASTEIGER

@<TRIPOS>ATOM
      1 O           0.0000    0.0000    0.0000 O.2     1  UNL1        0.0000
      2 C           0.0000    0.0000    0.0000 C.2     1  UNL1        0.0000
      3 N           0.0000    0.0000    0.0000 N.am    1  UNL1        0.0000
      4 C           0.0000    0.0000    0.0000 C.3     1  UNL1        0.0000
      5 C           0.0000    0.0000    0.0000 C.3     1  UNL1        0.0000
      6 C           0.0000    0.0000    0.0000 C.3     1  UNL1        0.0000
      7 C           0.0000    0.0000    0.0000 C.3     1  UNL1        0.0000
      8 C           0.0000    0.0000    0.0000 C.ar    1  UNL1        0.0000
      9 C           0.0000    0.0000    0.0000 C.ar    1  UNL1        0.0000
     10 C           0.0000    0.0000    0.0000 C.ar    1  UNL1        0.0000
     11 N           0.0000    0.0000    0.0000 N.ar    1  UNL1        0.0000
     12 C           0.0000    0.0000    0.0000 C.ar    1  UNL1        0.0000
     13 C           0.0000    0.0000    0.0000 C.ar    1  UNL1        0.0000
     14 C           0.0000    0.0000    0.0000 C.ar    1  UNL1        0.0000
     15 C           0.0000    0.0000    0.0000 C.ar    1  UNL1        0.0000
     16 C           0.0000    0.0000    0.0000 C.ar    1  UNL1        0.0000
     17 C           0.0000    0.0000    0.0000 C.ar    1  UNL1        0.0000
     18 N           0.0000    0.0000    0.0000 N.ar    1  UNL1        0.0000
     19 C           0.0000    0.0000    0.0000 C.ar    1  UNL1        0.0000
     20 C           0.0000    0.0000    0.0000 C.ar    1  UNL1        0.0000
     21 N           0.0000    0.0000    0.0000 N.ar    1  UNL1        0.0000
     22 C           0.0000    0.0000    0.0000 C.ar    1  UNL1        0.0000
     23 C           0.0000    0.0000    0.0000 C.3     1  UNL1        0.0000
     24 C           0.0000    0.0000    0.0000 C.3     1  UNL1        0.0000
     25 C           0.0000    0.0000    0.0000 C.3     1  UNL1        0.0000
     26 C           0.0000    0.0000    0.0000 C.3     1  UNL1        0.0000
     27 C           0.0000    0.0000    0.0000 C.3     1  UNL1        0.0000
     28 C           0.0000    0.0000    0.0000 C.3     1  UNL1        0.0000
     29 C           0.0000    0.0000    0.0000 C.3     1  UNL1        0.0000
     30 C           0.0000    0.0000    0.0000 C.3     1  UNL1        0.0000
     31 C           0.0000    0.0000    0.0000 C.ar    1  UNL1        0.0000
     32 N           0.0000    0.0000    0.0000 N.ar    1  UNL1        0.0000
     33 N           0.0000    0.0000    0.0000 N.ar    1  UNL1        0.0000
     34 C           0.0000    0.0000    0.0000 C.ar    1  UNL1        0.0000
     35 C           0.0000    0.0000    0.0000 C.ar    1  UNL1        0.0000
     36 H          -1.7954   -1.1376    1.1539 H       1  UNL1        0.0000
     37 H           0.7728   -2.1520    0.9400 H       1  UNL1        0.0000
     38 H          -1.2277    1.4372    1.7259 H       1  UNL1        0.0000
     39 H          -0.3743   -1.4535   -1.9817 H       1  UNL1        0.0000
     40 H          -0.9982   -0.0646    2.1747 H       1  UNL1        0.0000
     41 H           1.7761   -1.0172    1.3526 H       1  UNL1        0.0000
     42 H          -2.3555   -0.6019   -0.3006 H       1  UNL1        0.0000
     43 H          -0.8032    0.8277   -2.1516 H       1  UNL1        0.0000
     44 H           1.9695    1.3518   -0.4190 H       1  UNL1        0.0000
     45 H           1.8286   -1.5574   -0.2083 H       1  UNL1        0.0000
     46 H          -2.0028    0.8398   -0.9769 H       1  UNL1        0.0000
     47 H           0.4679   -0.1577   -2.3820 H       1  UNL1        0.0000
     48 H           1.9115    0.0500   -1.4065 H       1  UNL1        0.0000
     49 H           0.3160    1.2017    2.0209 H       1  UNL1        0.0000
     50 H          -0.3278   -1.5005    1.9166 H       1  UNL1        0.0000
     51 H          -1.4277   -1.8043   -0.7843 H       1  UNL1        0.0000
     52 H          -0.2907    2.2846    0.7531 H       1  UNL1        0.0000
     53 H           0.2745   -2.2578   -0.6613 H       1  UNL1        0.0000
     54 H          -0.7636    2.0133   -1.0579 H       1  UNL1        0.0000
     55 H           0.2745   -2.2578   -0.6613 H       1  UNL1        0.0000
     56 H           1.8167    0.5690    1.5200 H       1  UNL1        0.0000
     57 H           1.2580   -1.3672   -1.6893 H       1  UNL1        0.0000
     58 H          -1.6178   -0.5014   -1.7751 H       1  UNL1        0.0000
     59 H           0.6669   -0.3308    2.3174 H       1  UNL1        0.0000
     60 H          -1.7276    1.8111    0.2318 H       1  UNL1        0.0000
     61 H           0.8069    1.3398   -1.7586 H       1  UNL1        0.0000
     62 H           0.8069    1.3398   -1.7586 H       1  UNL1        0.0000
     63 H           0.6881    2.4031   -0.4939 H       1  UNL1        0.0000
     64 H           2.4243   -0.0923    0.1474 H       1  UNL1        0.0000
     65 H          -0.8335   -2.2823    0.6088 H       1  UNL1        0.0000
     66 H          -2.1578    0.4132    0.9156 H       1  UNL1        0.0000
     67 H           1.2604    1.8964    0.9115 H       1  UNL1        0.0000
     68 EU          0.0000    0.0000    0.0000 Eu      1  UNL1        0.0000
@<TRIPOS>BOND
     1     1     2    2
     2     2     3   am
     3     3     4    1
     4     3     5    1
     5     5     6    1
     6     6     7    1
     7     2     8    1
     8     8     9   ar
     9     9    10   ar
    10     8    11   ar
    11    11    12   ar
    12    12    13   ar
    13    10    13   ar
    14    13    14   ar
    15    14    15   ar
    16    15    16   ar
    17    16    17   ar
    18    12    17   ar
    19    17    18   ar
    20    18    19   ar
    21    19    20    1
    22    20    21   ar
    23    21    22   ar
    24    22    23    1
    25    23    24    1
    26    23    25    1
    27    23    26    1
    28    26    27    1
    29    27    28    1
    30    28    29    1
    31    28    30    1
    32    22    31   ar
    33    28    31    1
    34    31    32   ar
    35    32    33   ar
    36    20    33   ar
    37    19    34   ar
    38    34    35   ar
    39    16    35   ar
    40     4    36    1
    41     4    37    1
    42     4    38    1
    43     5    39    1
    44     5    40    1
    45     6    41    1
    46     6    42    1
    47     7    43    1
    48     7    44    1
    49     7    45    1
    50     9    46    1
    51    10    47    1
    52    14    48    1
    53    15    49    1
    54    24    50    1
    55    24    51    1
    56    24    52    1
    57    25    53    1
    58    25    54    1
    59    25    55    1
    60    26    56    1
    61    26    57    1
    62    27    58    1
    63    27    59    1
    64    29    60    1
    65    29    61    1
    66    29    62    1
    67    30    63    1
    68    30    64    1
    69    30    65    1
    70    34    66    1
    71    35    67    1
    72    68     1    1
    73    68    33    1
    74    68    18    1
    75    68    11    1
@<TRIPOS>MOLECULE
*****
 68 75 0 0 0
SMALL
GASTEIGER

@<TRIPOS>ATOM
      1 O           0.0000    0.0000    0.0000 O.2     1  UNL1        0.0000
      2 C           0.0000    0.0000    0.0000 C.2     1  UNL1        0.0000
      3 N           0.0000    0.0000    0.0000 N.am    1  UNL1        0.0000
      4 C           0.0000    0.0000    0.0000 C.3     1  UNL1        0.0000
      5 C           0.0000    0.0000    0.0000 C.3     1  UNL1        0.0000
      6 C           0.0000    0.0000    0.0000 C.3     1  UNL1        0.0000
      7 C           0.0000    0.0000    0.0000 C.3     1  UNL1        0.0000
      8 C           0.0000    0.0000    0.0000 C.ar    1  UNL1        0.0000
      9 C           0.0000    0.0000    0.0000 C.ar    1  UNL1        0.0000
     10 C           0.0000    0.0000    0.0000 C.ar    1  UNL1        0.0000
     11 N           0.0000    0.0000    0.0000 N.ar    1  UNL1        0.0000
     12 C           0.0000    0.0000    0.0000 C.ar    1  UNL1        0.0000
     13 C           0.0000    0.0000    0.0000 C.ar    1  UNL1        0.0000
     14 C           0.0000    0.0000    0.0000 C.ar    1  UNL1        0.0000
     15 C           0.0000    0.0000    0.0000 C.ar    1  UNL1        0.0000
     16 C           0.0000    0.0000    0.0000 C.ar    1  UNL1        0.0000
     17 C           0.0000    0.0000    0.0000 C.ar    1  UNL1        0.0000
     18 N           0.0000    0.0000    0.0000 N.ar    1  UNL1        0.0000
     19 C           0.0000    0.0000    0.0000 C.ar    1  UNL1        0.0000
     20 C           0.0000    0.0000    0.0000 C.ar    1  UNL1        0.0000
     21 N           0.0000    0.0000    0.0000 N.ar    1  UNL1        0.0000
     22 C           0.0000    0.0000    0.0000 C.ar    1  UNL1        0.0000
     23 C           0.0000    0.0000    0.0000 C.3     1  UNL1        0.0000
     24 C           0.0000    0.0000    0.0000 C.3     1  UNL1        0.0000
     25 C           0.0000    0.0000    0.0000 C.3     1  UNL1        0.0000
     26 C           0.0000    0.0000    0.0000 C.3     1  UNL1        0.0000
     27 C           0.0000    0.0000    0.0000 C.3     1  UNL1        0.0000
     28 C           0.0000    0.0000    0.0000 C.3     1  UNL1        0.0000
     29 C           0.0000    0.0000    0.0000 C.3     1  UNL1        0.0000
     30 C           0.0000    0.0000    0.0000 C.3     1  UNL1        0.0000
     31 C           0.0000    0.0000    0.0000 C.ar    1  UNL1        0.0000
     32 N           0.0000    0.0000    0.0000 N.ar    1  UNL1        0.0000
     33 N           0.0000    0.0000    0.0000 N.ar    1  UNL1        0.0000
     34 C           0.0000    0.0000    0.0000 C.ar    1  UNL1        0.0000
     35 C           0.0000    0.0000    0.0000 C.ar    1  UNL1        0.0000
     36 H          -1.7852   -1.1434    1.1717 H       1  UNL1        0.0000
     37 H           0.7806   -2.1559    0.9277 H       1  UNL1        0.0000
     38 H          -1.2140    1.4339    1.7316 H       1  UNL1        0.0000
     39 H          -0.3707   -1.4378   -1.9953 H       1  UNL1        0.0000
     40 H          -0.9771   -0.0687    2.1842 H       1  UNL1        0.0000
     41 H           1.7874   -1.0194    1.3381 H       1  UNL1        0.0000
     42 H          -2.3509   -0.6266   -0.2824 H       1  UNL1        0.0000
     43 H          -0.8222    0.8213   -2.1427 H       1  UNL1        0.0000
     44 H           1.9708    1.3480   -0.4163 H       1  UNL1        0.0000
     45 H           1.8266   -1.5583   -0.2247 H       1  UNL1        0.0000
     46 H          -2.0098    0.8322   -0.9638 H       1  UNL1        0.0000
     47 H           0.4584   -0.1384   -2.3710 H       1  UNL1        0.0000
     48 H           1.9038    0.0546   -1.4197 H       1  UNL1        0.0000
     49 H           0.3286    1.1949    2.0260 H       1  UNL1        0.0000
     50 H          -0.3109   -1.5050    1.9148 H       1  UNL1        0.0000
     51 H          -1.4162   -1.8180   -0.7930 H       1  UNL1        0.0000
     52 H          -0.2876    2.2794    0.7505 H       1  UNL1        0.0000
     53 H           0.2727   -2.2556   -0.6720 H       1  UNL1        0.0000
     54 H          -0.7709    2.0119   -1.0480 H       1  UNL1        0.0000
     55 H           0.2727   -2.2556   -0.6720 H       1  UNL1        0.0000
     56 H           1.8200    0.5687    1.5060 H       1  UNL1        0.0000
     57 H           1.2496   -1.3652   -1.7062 H       1  UNL1        0.0000
     58 H          -1.6331   -0.5081   -1.7646 H       1  UNL1        0.0000
     59 H           0.6911   -0.3411    2.3095 H       1  UNL1        0.0000
     60 H          -1.7307    1.8008    0.2484 H       1  UNL1        0.0000
     61 H           0.8030    1.3584   -1.7611 H       1  UNL1        0.0000
     62 H           0.8030    1.3584   -1.7611 H       1  UNL1        0.0000
     63 H           0.6790    2.4103   -0.4946 H       1  UNL1        0.0000
     64 H           2.4303   -0.1009    0.1326 H       1  UNL1        0.0000
     65 H          -0.8289   -2.2810    0.6086 H       1  UNL1        0.0000
     66 H          -2.1493    0.4099    0.9192 H       1  UNL1        0.0000
     67 H           1.2539    1.8979    0.9050 H       1  UNL1        0.0000
     68 EU          0.0000    0.0000    0.0000 Eu      1  UNL1        0.0000
@<TRIPOS>BOND
     1     1     2    2
     2     2     3   am
     3     3     4    1
     4     3     5    1
     5     5     6    1
     6     6     7    1
     7     2     8    1
     8     8     9   ar
     9     9    10   ar
    10     8    11   ar
    11    11    12   ar
    12    12    13   ar
    13    10    13   ar
    14    13    14   ar
    15    14    15   ar
    16    15    16   ar
    17    16    17   ar
    18    12    17   ar
    19    17    18   ar
    20    18    19   ar
    21    19    20    1
    22    20    21   ar
    23    21    22   ar
    24    22    23    1
    25    23    24    1
    26    23    25    1
    27    23    26    1
    28    26    27    1
    29    27    28    1
    30    28    29    1
    31    28    30    1
    32    22    31   ar
    33    28    31    1
    34    31    32   ar
    35    32    33   ar
    36    20    33   ar
    37    19    34   ar
    38    34    35   ar
    39    16    35   ar
    40     4    36    1
    41     4    37    1
    42     4    38    1
    43     5    39    1
    44     5    40    1
    45     6    41    1
    46     6    42    1
    47     7    43    1
    48     7    44    1
    49     7    45    1
    50     9    46    1
    51    10    47    1
    52    14    48    1
    53    15    49    1
    54    24    50    1
    55    24    51    1
    56    24    52    1
    57    25    53    1
    58    25    54    1
    59    25    55    1
    60    26    56    1
    61    26    57    1
    62    27    58    1
    63    27    59    1
    64    29    60    1
    65    29    61    1
    66    29    62    1
    67    30    63    1
    68    30    64    1
    69    30    65    1
    70    34    66    1
    71    35    67    1
    72    68     1    1
    73    68    33    1
    74    68    18    1
    75    68    11    1
@<TRIPOS>MOLECULE
*****
 68 75 0 0 0
SMALL
GASTEIGER

@<TRIPOS>ATOM
      1 O           0.0000    0.0000    0.0000 O.2     1  UNL1        0.0000
      2 C           0.0000    0.0000    0.0000 C.2     1  UNL1        0.0000
      3 N           0.0000    0.0000    0.0000 N.am    1  UNL1        0.0000
      4 C           0.0000    0.0000    0.0000 C.3     1  UNL1        0.0000
      5 C           0.0000    0.0000    0.0000 C.3     1  UNL1        0.0000
      6 C           0.0000    0.0000    0.0000 C.3     1  UNL1        0.0000
      7 C           0.0000    0.0000    0.0000 C.3     1  UNL1        0.0000
      8 C           0.0000    0.0000    0.0000 C.ar    1  UNL1        0.0000
      9 C           0.0000    0.0000    0.0000 C.ar    1  UNL1        0.0000
     10 C           0.0000    0.0000    0.0000 C.ar    1  UNL1        0.0000
     11 N           0.0000    0.0000    0.0000 N.ar    1  UNL1        0.0000
     12 C           0.0000    0.0000    0.0000 C.ar    1  UNL1        0.0000
     13 C           0.0000    0.0000    0.0000 C.ar    1  UNL1        0.0000
     14 C           0.0000    0.0000    0.0000 C.ar    1  UNL1        0.0000
     15 C           0.0000    0.0000    0.0000 C.ar    1  UNL1        0.0000
     16 C           0.0000    0.0000    0.0000 C.ar    1  UNL1        0.0000
     17 C           0.0000    0.0000    0.0000 C.ar    1  UNL1        0.0000
     18 N           0.0000    0.0000    0.0000 N.ar    1  UNL1        0.0000
     19 C           0.0000    0.0000    0.0000 C.ar    1  UNL1        0.0000
     20 C           0.0000    0.0000    0.0000 C.ar    1  UNL1        0.0000
     21 N           0.0000    0.0000    0.0000 N.ar    1  UNL1        0.0000
     22 C           0.0000    0.0000    0.0000 C.ar    1  UNL1        0.0000
     23 C           0.0000    0.0000    0.0000 C.3     1  UNL1        0.0000
     24 C           0.0000    0.0000    0.0000 C.3     1  UNL1        0.0000
     25 C           0.0000    0.0000    0.0000 C.3     1  UNL1        0.0000
     26 C           0.0000    0.0000    0.0000 C.3     1  UNL1        0.0000
     27 C           0.0000    0.0000    0.0000 C.3     1  UNL1        0.0000
     28 C           0.0000    0.0000    0.0000 C.3     1  UNL1        0.0000
     29 C           0.0000    0.0000    0.0000 C.3     1  UNL1        0.0000
     30 C           0.0000    0.0000    0.0000 C.3     1  UNL1        0.0000
     31 C           0.0000    0.0000    0.0000 C.ar    1  UNL1        0.0000
     32 N           0.0000    0.0000    0.0000 N.ar    1  UNL1        0.0000
     33 N           0.0000    0.0000    0.0000 N.ar    1  UNL1        0.0000
     34 C           0.0000    0.0000    0.0000 C.ar    1  UNL1        0.0000
     35 C           0.0000    0.0000    0.0000 C.ar    1  UNL1        0.0000
     36 H          -1.7848   -1.1404    1.1700 H       1  UNL1        0.0000
     37 H           0.7805   -2.1462    0.9318 H       1  UNL1        0.0000
     38 H          -1.2170    1.4353    1.7336 H       1  UNL1        0.0000
     39 H          -0.3840   -1.4476   -1.9940 H       1  UNL1        0.0000
     40 H          -0.9771   -0.0686    2.1834 H       1  UNL1        0.0000
     41 H           1.8019   -1.0212    1.3325 H       1  UNL1        0.0000
     42 H          -2.3551   -0.6193   -0.2785 H       1  UNL1        0.0000
     43 H          -0.8221    0.8280   -2.1432 H       1  UNL1        0.0000
     44 H           1.9680    1.3525   -0.4238 H       1  UNL1        0.0000
     45 H           1.8291   -1.5587   -0.2270 H       1  UNL1        0.0000
     46 H          -2.0100    0.8403   -0.9557 H       1  UNL1        0.0000
     47 H           0.4539   -0.1381   -2.3717 H       1  UNL1        0.0000
     48 H           1.9002    0.0589   -1.4217 H       1  UNL1        0.0000
     49 H           0.3248    1.1867    2.0281 H       1  UNL1        0.0000
     50 H          -0.3159   -1.5095    1.9209 H       1  UNL1        0.0000
     51 H          -1.4202   -1.8136   -0.7889 H       1  UNL1        0.0000
     52 H          -0.2945    2.2845    0.7481 H       1  UNL1        0.0000
     53 H           0.2737   -2.2563   -0.6689 H       1  UNL1        0.0000
     54 H          -0.7687    2.0158   -1.0445 H       1  UNL1        0.0000
     55 H           0.2737   -2.2563   -0.6689 H       1  UNL1        0.0000
     56 H           1.8244    0.5669    1.5033 H       1  UNL1        0.0000
     57 H           1.2497   -1.3622   -1.7048 H       1  UNL1        0.0000
     58 H          -1.6373   -0.5012   -1.7454 H       1  UNL1        0.0000
     59 H           0.6933   -0.3486    2.3054 H       1  UNL1        0.0000
     60 H          -1.7341    1.8062    0.2510 H       1  UNL1        0.0000
     61 H           0.8018    1.3590   -1.7630 H       1  UNL1        0.0000
     62 H           0.8018    1.3590   -1.7630 H       1  UNL1        0.0000
     63 H           0.6908    2.4040   -0.4953 H       1  UNL1        0.0000
     64 H           2.4286   -0.0938    0.1251 H       1  UNL1        0.0000
     65 H          -0.8284   -2.2815    0.6079 H       1  UNL1        0.0000
     66 H          -2.1552    0.4042    0.9335 H       1  UNL1        0.0000
     67 H           1.2559    1.8962    0.9112 H       1  UNL1        0.0000
     68 EU          0.0000    0.0000    0.0000 Eu      1  UNL1        0.0000
@<TRIPOS>BOND
     1     1     2    2
     2     2     3   am
     3     3     4    1
     4     3     5    1
     5     5     6    1
     6     6     7    1
     7     2     8    1
     8     8     9   ar
     9     9    10   ar
    10     8    11   ar
    11    11    12   ar
    12    12    13   ar
    13    10    13   ar
    14    13    14   ar
    15    14    15   ar
    16    15    16   ar
    17    16    17   ar
    18    12    17   ar
    19    17    18   ar
    20    18    19   ar
    21    19    20    1
    22    20    21   ar
    23    21    22   ar
    24    22    23    1
    25    23    24    1
    26    23    25    1
    27    23    26    1
    28    26    27    1
    29    27    28    1
    30    28    29    1
    31    28    30    1
    32    22    31   ar
    33    28    31    1
    34    31    32   ar
    35    32    33   ar
    36    20    33   ar
    37    19    34   ar
    38    34    35   ar
    39    16    35   ar
    40     4    36    1
    41     4    37    1
    42     4    38    1
    43     5    39    1
    44     5    40    1
    45     6    41    1
    46     6    42    1
    47     7    43    1
    48     7    44    1
    49     7    45    1
    50     9    46    1
    51    10    47    1
    52    14    48    1
    53    15    49    1
    54    24    50    1
    55    24    51    1
    56    24    52    1
    57    25    53    1
    58    25    54    1
    59    25    55    1
    60    26    56    1
    61    26    57    1
    62    27    58    1
    63    27    59    1
    64    29    60    1
    65    29    61    1
    66    29    62    1
    67    30    63    1
    68    30    64    1
    69    30    65    1
    70    34    66    1
    71    35    67    1
    72    68     1    1
    73    68    33    1
    74    68    18    1
    75    68    11    1
@<TRIPOS>MOLECULE
*****
 68 75 0 0 0
SMALL
GASTEIGER

@<TRIPOS>ATOM
      1 O           0.0000    0.0000    0.0000 O.2     1  UNL1        0.0000
      2 C           0.0000    0.0000    0.0000 C.2     1  UNL1        0.0000
      3 N           0.0000    0.0000    0.0000 N.am    1  UNL1        0.0000
      4 C           0.0000    0.0000    0.0000 C.3     1  UNL1        0.0000
      5 C           0.0000    0.0000    0.0000 C.3     1  UNL1        0.0000
      6 C           0.0000    0.0000    0.0000 C.3     1  UNL1        0.0000
      7 C           0.0000    0.0000    0.0000 C.3     1  UNL1        0.0000
      8 C           0.0000    0.0000    0.0000 C.ar    1  UNL1        0.0000
      9 C           0.0000    0.0000    0.0000 C.ar    1  UNL1        0.0000
     10 C           0.0000    0.0000    0.0000 C.ar    1  UNL1        0.0000
     11 N           0.0000    0.0000    0.0000 N.ar    1  UNL1        0.0000
     12 C           0.0000    0.0000    0.0000 C.ar    1  UNL1        0.0000
     13 C           0.0000    0.0000    0.0000 C.ar    1  UNL1        0.0000
     14 C           0.0000    0.0000    0.0000 C.ar    1  UNL1        0.0000
     15 C           0.0000    0.0000    0.0000 C.ar    1  UNL1        0.0000
     16 C           0.0000    0.0000    0.0000 C.ar    1  UNL1        0.0000
     17 C           0.0000    0.0000    0.0000 C.ar    1  UNL1        0.0000
     18 N           0.0000    0.0000    0.0000 N.ar    1  UNL1        0.0000
     19 C           0.0000    0.0000    0.0000 C.ar    1  UNL1        0.0000
     20 C           0.0000    0.0000    0.0000 C.ar    1  UNL1        0.0000
     21 N           0.0000    0.0000    0.0000 N.ar    1  UNL1        0.0000
     22 C           0.0000    0.0000    0.0000 C.ar    1  UNL1        0.0000
     23 C           0.0000    0.0000    0.0000 C.3     1  UNL1        0.0000
     24 C           0.0000    0.0000    0.0000 C.3     1  UNL1        0.0000
     25 C           0.0000    0.0000    0.0000 C.3     1  UNL1        0.0000
     26 C           0.0000    0.0000    0.0000 C.3     1  UNL1        0.0000
     27 C           0.0000    0.0000    0.0000 C.3     1  UNL1        0.0000
     28 C           0.0000    0.0000    0.0000 C.3     1  UNL1        0.0000
     29 C           0.0000    0.0000    0.0000 C.3     1  UNL1        0.0000
     30 C           0.0000    0.0000    0.0000 C.3     1  UNL1        0.0000
     31 C           0.0000    0.0000    0.0000 C.ar    1  UNL1        0.0000
     32 N           0.0000    0.0000    0.0000 N.ar    1  UNL1        0.0000
     33 N           0.0000    0.0000    0.0000 N.ar    1  UNL1        0.0000
     34 C           0.0000    0.0000    0.0000 C.ar    1  UNL1        0.0000
     35 C           0.0000    0.0000    0.0000 C.ar    1  UNL1        0.0000
     36 H          -1.7813   -1.1387    1.1786 H       1  UNL1        0.0000
     37 H           0.7776   -2.1610    0.9211 H       1  UNL1        0.0000
     38 H          -1.2166    1.4324    1.7369 H       1  UNL1        0.0000
     39 H          -0.3728   -1.4313   -2.0053 H       1  UNL1        0.0000
     40 H          -0.9752   -0.0673    2.1861 H       1  UNL1        0.0000
     41 H           1.7826   -1.0277    1.3352 H       1  UNL1        0.0000
     42 H          -2.3500   -0.6245   -0.2746 H       1  UNL1        0.0000
     43 H          -0.8219    0.8371   -2.1420 H       1  UNL1        0.0000
     44 H           1.9638    1.3613   -0.4076 H       1  UNL1        0.0000
     45 H           1.8259   -1.5595   -0.2286 H       1  UNL1        0.0000
     46 H          -2.0138    0.8325   -0.9493 H       1  UNL1        0.0000
     47 H           0.4599   -0.1322   -2.3717 H       1  UNL1        0.0000
     48 H           1.9048    0.0423   -1.4172 H       1  UNL1        0.0000
     49 H           0.3277    1.1904    2.0265 H       1  UNL1        0.0000
     50 H          -0.3115   -1.5085    1.9122 H       1  UNL1        0.0000
     51 H          -1.4191   -1.8069   -0.8035 H       1  UNL1        0.0000
     52 H          -0.2868    2.2822    0.7577 H       1  UNL1        0.0000
     53 H           0.2686   -2.2540   -0.6794 H       1  UNL1        0.0000
     54 H          -0.7707    2.0154   -1.0422 H       1  UNL1        0.0000
     55 H           0.2686   -2.2540   -0.6794 H       1  UNL1        0.0000
     56 H           1.8271    0.5598    1.5106 H       1  UNL1        0.0000
     57 H           1.2490   -1.3686   -1.7109 H       1  UNL1        0.0000
     58 H          -1.6349   -0.4969   -1.7723 H       1  UNL1        0.0000
     59 H           0.6865   -0.3429    2.3116 H       1  UNL1        0.0000
     60 H          -1.7267    1.8093    0.2509 H       1  UNL1        0.0000
     61 H           0.8020    1.3627   -1.7559 H       1  UNL1        0.0000
     62 H           0.8020    1.3627   -1.7559 H       1  UNL1        0.0000
     63 H           0.6874    2.4088   -0.4893 H       1  UNL1        0.0000
     64 H           2.4249   -0.0960    0.1322 H       1  UNL1        0.0000
     65 H          -0.8297   -2.2749    0.5981 H       1  UNL1        0.0000
     66 H          -2.1536    0.4088    0.9290 H       1  UNL1        0.0000
     67 H           1.2532    1.8999    0.8915 H       1  UNL1        0.0000
     68 EU          0.0000    0.0000    0.0000 Eu      1  UNL1        0.0000
@<TRIPOS>BOND
     1     1     2    2
     2     2     3   am
     3     3     4    1
     4     3     5    1
     5     5     6    1
     6     6     7    1
     7     2     8    1
     8     8     9   ar
     9     9    10   ar
    10     8    11   ar
    11    11    12   ar
    12    12    13   ar
    13    10    13   ar
    14    13    14   ar
    15    14    15   ar
    16    15    16   ar
    17    16    17   ar
    18    12    17   ar
    19    17    18   ar
    20    18    19   ar
    21    19    20    1
    22    20    21   ar
    23    21    22   ar
    24    22    23    1
    25    23    24    1
    26    23    25    1
    27    23    26    1
    28    26    27    1
    29    27    28    1
    30    28    29    1
    31    28    30    1
    32    22    31   ar
    33    28    31    1
    34    31    32   ar
    35    32    33   ar
    36    20    33   ar
    37    19    34   ar
    38    34    35   ar
    39    16    35   ar
    40     4    36    1
    41     4    37    1
    42     4    38    1
    43     5    39    1
    44     5    40    1
    45     6    41    1
    46     6    42    1
    47     7    43    1
    48     7    44    1
    49     7    45    1
    50     9    46    1
    51    10    47    1
    52    14    48    1
    53    15    49    1
    54    24    50    1
    55    24    51    1
    56    24    52    1
    57    25    53    1
    58    25    54    1
    59    25    55    1
    60    26    56    1
    61    26    57    1
    62    27    58    1
    63    27    59    1
    64    29    60    1
    65    29    61    1
    66    29    62    1
    67    30    63    1
    68    30    64    1
    69    30    65    1
    70    34    66    1
    71    35    67    1
    72    68     1    1
    73    68    33    1
    74    68    18    1
    75    68    11    1
@<TRIPOS>MOLECULE
*****
 68 75 0 0 0
SMALL
GASTEIGER

@<TRIPOS>ATOM
      1 O           0.0000    0.0000    0.0000 O.2     1  UNL1        0.0000
      2 C           0.0000    0.0000    0.0000 C.2     1  UNL1        0.0000
      3 N           0.0000    0.0000    0.0000 N.am    1  UNL1        0.0000
      4 C           0.0000    0.0000    0.0000 C.3     1  UNL1        0.0000
      5 C           0.0000    0.0000    0.0000 C.3     1  UNL1        0.0000
      6 C           0.0000    0.0000    0.0000 C.3     1  UNL1        0.0000
      7 C           0.0000    0.0000    0.0000 C.3     1  UNL1        0.0000
      8 C           0.0000    0.0000    0.0000 C.ar    1  UNL1        0.0000
      9 C           0.0000    0.0000    0.0000 C.ar    1  UNL1        0.0000
     10 C           0.0000    0.0000    0.0000 C.ar    1  UNL1        0.0000
     11 N           0.0000    0.0000    0.0000 N.ar    1  UNL1        0.0000
     12 C           0.0000    0.0000    0.0000 C.ar    1  UNL1        0.0000
     13 C           0.0000    0.0000    0.0000 C.ar    1  UNL1        0.0000
     14 C           0.0000    0.0000    0.0000 C.ar    1  UNL1        0.0000
     15 C           0.0000    0.0000    0.0000 C.ar    1  UNL1        0.0000
     16 C           0.0000    0.0000    0.0000 C.ar    1  UNL1        0.0000
     17 C           0.0000    0.0000    0.0000 C.ar    1  UNL1        0.0000
     18 N           0.0000    0.0000    0.0000 N.ar    1  UNL1        0.0000
     19 C           0.0000    0.0000    0.0000 C.ar    1  UNL1        0.0000
     20 C           0.0000    0.0000    0.0000 C.ar    1  UNL1        0.0000
     21 N           0.0000    0.0000    0.0000 N.ar    1  UNL1        0.0000
     22 C           0.0000    0.0000    0.0000 C.ar    1  UNL1        0.0000
     23 C           0.0000    0.0000    0.0000 C.3     1  UNL1        0.0000
     24 C           0.0000    0.0000    0.0000 C.3     1  UNL1        0.0000
     25 C           0.0000    0.0000    0.0000 C.3     1  UNL1        0.0000
     26 C           0.0000    0.0000    0.0000 C.3     1  UNL1        0.0000
     27 C           0.0000    0.0000    0.0000 C.3     1  UNL1        0.0000
     28 C           0.0000    0.0000    0.0000 C.3     1  UNL1        0.0000
     29 C           0.0000    0.0000    0.0000 C.3     1  UNL1        0.0000
     30 C           0.0000    0.0000    0.0000 C.3     1  UNL1        0.0000
     31 C           0.0000    0.0000    0.0000 C.ar    1  UNL1        0.0000
     32 N           0.0000    0.0000    0.0000 N.ar    1  UNL1        0.0000
     33 N           0.0000    0.0000    0.0000 N.ar    1  UNL1        0.0000
     34 C           0.0000    0.0000    0.0000 C.ar    1  UNL1        0.0000
     35 C           0.0000    0.0000    0.0000 C.ar    1  UNL1        0.0000
     36 H          -1.7987   -1.1260    1.1620 H       1  UNL1        0.0000
     37 H           0.7564   -2.1660    0.9253 H       1  UNL1        0.0000
     38 H          -1.2103    1.4409    1.7361 H       1  UNL1        0.0000
     39 H          -0.3871   -1.4309   -1.9950 H       1  UNL1        0.0000
     40 H          -0.9943   -0.0656    2.1797 H       1  UNL1        0.0000
     41 H           1.7716   -1.0406    1.3384 H       1  UNL1        0.0000
     42 H          -2.3559   -0.5994   -0.2857 H       1  UNL1        0.0000
     43 H          -0.8072    0.8321   -2.1449 H       1  UNL1        0.0000
     44 H           1.9780    1.3343   -0.4265 H       1  UNL1        0.0000
     45 H           1.8132   -1.5718   -0.2254 H       1  UNL1        0.0000
     46 H          -2.0001    0.8576   -0.9558 H       1  UNL1        0.0000
     47 H           0.4613   -0.1439   -2.3674 H       1  UNL1        0.0000
     48 H           1.9057    0.0326   -1.4141 H       1  UNL1        0.0000
     49 H           0.3294    1.1869    2.0254 H       1  UNL1        0.0000
     50 H          -0.3320   -1.5047    1.9088 H       1  UNL1        0.0000
     51 H          -1.4342   -1.8026   -0.7953 H       1  UNL1        0.0000
     52 H          -0.2584    2.2835    0.7697 H       1  UNL1        0.0000
     53 H           0.2505   -2.2574   -0.6741 H       1  UNL1        0.0000
     54 H          -0.7492    2.0209   -1.0533 H       1  UNL1        0.0000
     55 H           0.2505   -2.2574   -0.6741 H       1  UNL1        0.0000
     56 H           1.8289    0.5459    1.5156 H       1  UNL1        0.0000
     57 H           1.2379   -1.3810   -1.7064 H       1  UNL1        0.0000
     58 H          -1.6364   -0.4856   -1.7635 H       1  UNL1        0.0000
     59 H           0.6748   -0.3485    2.3106 H       1  UNL1        0.0000
     60 H          -1.7063    1.8283    0.2429 H       1  UNL1        0.0000
     61 H           0.8187    1.3535   -1.7586 H       1  UNL1        0.0000
     62 H           0.8187    1.3535   -1.7586 H       1  UNL1        0.0000
     63 H           0.7072    2.3986   -0.4915 H       1  UNL1        0.0000
     64 H           2.4253   -0.1142    0.1369 H       1  UNL1        0.0000
     65 H          -0.8529   -2.2764    0.6029 H       1  UNL1        0.0000
     66 H          -2.1506    0.4382    0.9182 H       1  UNL1        0.0000
     67 H           1.2770    1.8764    0.9112 H       1  UNL1        0.0000
     68 EU          0.0000    0.0000    0.0000 Eu      1  UNL1        0.0000
@<TRIPOS>BOND
     1     1     2    2
     2     2     3   am
     3     3     4    1
     4     3     5    1
     5     5     6    1
     6     6     7    1
     7     2     8    1
     8     8     9   ar
     9     9    10   ar
    10     8    11   ar
    11    11    12   ar
    12    12    13   ar
    13    10    13   ar
    14    13    14   ar
    15    14    15   ar
    16    15    16   ar
    17    16    17   ar
    18    12    17   ar
    19    17    18   ar
    20    18    19   ar
    21    19    20    1
    22    20    21   ar
    23    21    22   ar
    24    22    23    1
    25    23    24    1
    26    23    25    1
    27    23    26    1
    28    26    27    1
    29    27    28    1
    30    28    29    1
    31    28    30    1
    32    22    31   ar
    33    28    31    1
    34    31    32   ar
    35    32    33   ar
    36    20    33   ar
    37    19    34   ar
    38    34    35   ar
    39    16    35   ar
    40     4    36    1
    41     4    37    1
    42     4    38    1
    43     5    39    1
    44     5    40    1
    45     6    41    1
    46     6    42    1
    47     7    43    1
    48     7    44    1
    49     7    45    1
    50     9    46    1
    51    10    47    1
    52    14    48    1
    53    15    49    1
    54    24    50    1
    55    24    51    1
    56    24    52    1
    57    25    53    1
    58    25    54    1
    59    25    55    1
    60    26    56    1
    61    26    57    1
    62    27    58    1
    63    27    59    1
    64    29    60    1
    65    29    61    1
    66    29    62    1
    67    30    63    1
    68    30    64    1
    69    30    65    1
    70    34    66    1
    71    35    67    1
    72    68     1    1
    73    68    33    1
    74    68    18    1
    75    68    11    1
@<TRIPOS>MOLECULE
*****
 68 75 0 0 0
SMALL
GASTEIGER

@<TRIPOS>ATOM
      1 O           0.0000    0.0000    0.0000 O.2     1  UNL1        0.0000
      2 C           0.0000    0.0000    0.0000 C.2     1  UNL1        0.0000
      3 N           0.0000    0.0000    0.0000 N.am    1  UNL1        0.0000
      4 C           0.0000    0.0000    0.0000 C.3     1  UNL1        0.0000
      5 C           0.0000    0.0000    0.0000 C.3     1  UNL1        0.0000
      6 C           0.0000    0.0000    0.0000 C.3     1  UNL1        0.0000
      7 C           0.0000    0.0000    0.0000 C.3     1  UNL1        0.0000
      8 C           0.0000    0.0000    0.0000 C.ar    1  UNL1        0.0000
      9 C           0.0000    0.0000    0.0000 C.ar    1  UNL1        0.0000
     10 C           0.0000    0.0000    0.0000 C.ar    1  UNL1        0.0000
     11 N           0.0000    0.0000    0.0000 N.ar    1  UNL1        0.0000
     12 C           0.0000    0.0000    0.0000 C.ar    1  UNL1        0.0000
     13 C           0.0000    0.0000    0.0000 C.ar    1  UNL1        0.0000
     14 C           0.0000    0.0000    0.0000 C.ar    1  UNL1        0.0000
     15 C           0.0000    0.0000    0.0000 C.ar    1  UNL1        0.0000
     16 C           0.0000    0.0000    0.0000 C.ar    1  UNL1        0.0000
     17 C           0.0000    0.0000    0.0000 C.ar    1  UNL1        0.0000
     18 N           0.0000    0.0000    0.0000 N.ar    1  UNL1        0.0000
     19 C           0.0000    0.0000    0.0000 C.ar    1  UNL1        0.0000
     20 C           0.0000    0.0000    0.0000 C.ar    1  UNL1        0.0000
     21 N           0.0000    0.0000    0.0000 N.ar    1  UNL1        0.0000
     22 C           0.0000    0.0000    0.0000 C.ar    1  UNL1        0.0000
     23 C           0.0000    0.0000    0.0000 C.3     1  UNL1        0.0000
     24 C           0.0000    0.0000    0.0000 C.3     1  UNL1        0.0000
     25 C           0.0000    0.0000    0.0000 C.3     1  UNL1        0.0000
     26 C           0.0000    0.0000    0.0000 C.3     1  UNL1        0.0000
     27 C           0.0000    0.0000    0.0000 C.3     1  UNL1        0.0000
     28 C           0.0000    0.0000    0.0000 C.3     1  UNL1        0.0000
     29 C           0.0000    0.0000    0.0000 C.3     1  UNL1        0.0000
     30 C           0.0000    0.0000    0.0000 C.3     1  UNL1        0.0000
     31 C           0.0000    0.0000    0.0000 C.ar    1  UNL1        0.0000
     32 N           0.0000    0.0000    0.0000 N.ar    1  UNL1        0.0000
     33 N           0.0000    0.0000    0.0000 N.ar    1  UNL1        0.0000
     34 C           0.0000    0.0000    0.0000 C.ar    1  UNL1        0.0000
     35 C           0.0000    0.0000    0.0000 C.ar    1  UNL1        0.0000
     36 H          -1.8031   -1.1459    1.1734 H       1  UNL1        0.0000
     37 H           0.7569   -2.1640    0.9302 H       1  UNL1        0.0000
     38 H          -1.2064    1.4464    1.7331 H       1  UNL1        0.0000
     39 H          -0.3876   -1.4368   -1.9904 H       1  UNL1        0.0000
     40 H          -0.9842   -0.0574    2.1814 H       1  UNL1        0.0000
     41 H           1.7720   -1.0373    1.3428 H       1  UNL1        0.0000
     42 H          -2.3568   -0.5955   -0.2845 H       1  UNL1        0.0000
     43 H          -0.8065    0.8293   -2.1351 H       1  UNL1        0.0000
     44 H           1.9770    1.3340   -0.4249 H       1  UNL1        0.0000
     45 H           1.8123   -1.5762   -0.2159 H       1  UNL1        0.0000
     46 H          -2.0031    0.8550   -0.9645 H       1  UNL1        0.0000
     47 H           0.4658   -0.1435   -2.3626 H       1  UNL1        0.0000
     48 H           1.9107    0.0353   -1.4087 H       1  UNL1        0.0000
     49 H           0.3361    1.1941    2.0225 H       1  UNL1        0.0000
     50 H          -0.3306   -1.5008    1.9147 H       1  UNL1        0.0000
     51 H          -1.4372   -1.7991   -0.7935 H       1  UNL1        0.0000
     52 H          -0.2703    2.2821    0.7502 H       1  UNL1        0.0000
     53 H           0.2563   -2.2601   -0.6728 H       1  UNL1        0.0000
     54 H          -0.7466    2.0291   -1.0530 H       1  UNL1        0.0000
     55 H           0.2563   -2.2601   -0.6728 H       1  UNL1        0.0000
     56 H           1.8288    0.5515    1.5126 H       1  UNL1        0.0000
     57 H           1.2469   -1.3806   -1.7018 H       1  UNL1        0.0000
     58 H          -1.6320   -0.4919   -1.7696 H       1  UNL1        0.0000
     59 H           0.6786   -0.3423    2.3147 H       1  UNL1        0.0000
     60 H          -1.7150    1.8228    0.2430 H       1  UNL1        0.0000
     61 H           0.8176    1.3539   -1.7593 H       1  UNL1        0.0000
     62 H           0.8176    1.3539   -1.7593 H       1  UNL1        0.0000
     63 H           0.7093    2.4069   -0.4962 H       1  UNL1        0.0000
     64 H           2.4274   -0.1139    0.1429 H       1  UNL1        0.0000
     65 H          -0.8427   -2.2854    0.6005 H       1  UNL1        0.0000
     66 H          -2.1515    0.4291    0.9232 H       1  UNL1        0.0000
     67 H           1.2757    1.8835    0.9078 H       1  UNL1        0.0000
     68 EU          0.0000    0.0000    0.0000 Eu      1  UNL1        0.0000
@<TRIPOS>BOND
     1     1     2    2
     2     2     3   am
     3     3     4    1
     4     3     5    1
     5     5     6    1
     6     6     7    1
     7     2     8    1
     8     8     9   ar
     9     9    10   ar
    10     8    11   ar
    11    11    12   ar
    12    12    13   ar
    13    10    13   ar
    14    13    14   ar
    15    14    15   ar
    16    15    16   ar
    17    16    17   ar
    18    12    17   ar
    19    17    18   ar
    20    18    19   ar
    21    19    20    1
    22    20    21   ar
    23    21    22   ar
    24    22    23    1
    25    23    24    1
    26    23    25    1
    27    23    26    1
    28    26    27    1
    29    27    28    1
    30    28    29    1
    31    28    30    1
    32    22    31   ar
    33    28    31    1
    34    31    32   ar
    35    32    33   ar
    36    20    33   ar
    37    19    34   ar
    38    34    35   ar
    39    16    35   ar
    40     4    36    1
    41     4    37    1
    42     4    38    1
    43     5    39    1
    44     5    40    1
    45     6    41    1
    46     6    42    1
    47     7    43    1
    48     7    44    1
    49     7    45    1
    50     9    46    1
    51    10    47    1
    52    14    48    1
    53    15    49    1
    54    24    50    1
    55    24    51    1
    56    24    52    1
    57    25    53    1
    58    25    54    1
    59    25    55    1
    60    26    56    1
    61    26    57    1
    62    27    58    1
    63    27    59    1
    64    29    60    1
    65    29    61    1
    66    29    62    1
    67    30    63    1
    68    30    64    1
    69    30    65    1
    70    34    66    1
    71    35    67    1
    72    68     1    1
    73    68    33    1
    74    68    18    1
    75    68    11    1
@<TRIPOS>MOLECULE
*****
 68 75 0 0 0
SMALL
GASTEIGER

@<TRIPOS>ATOM
      1 O           0.0000    0.0000    0.0000 O.2     1  UNL1        0.0000
      2 C           0.0000    0.0000    0.0000 C.2     1  UNL1        0.0000
      3 N           0.0000    0.0000    0.0000 N.am    1  UNL1        0.0000
      4 C           0.0000    0.0000    0.0000 C.3     1  UNL1        0.0000
      5 C           0.0000    0.0000    0.0000 C.3     1  UNL1        0.0000
      6 C           0.0000    0.0000    0.0000 C.3     1  UNL1        0.0000
      7 C           0.0000    0.0000    0.0000 C.3     1  UNL1        0.0000
      8 C           0.0000    0.0000    0.0000 C.ar    1  UNL1        0.0000
      9 C           0.0000    0.0000    0.0000 C.ar    1  UNL1        0.0000
     10 C           0.0000    0.0000    0.0000 C.ar    1  UNL1        0.0000
     11 N           0.0000    0.0000    0.0000 N.ar    1  UNL1        0.0000
     12 C           0.0000    0.0000    0.0000 C.ar    1  UNL1        0.0000
     13 C           0.0000    0.0000    0.0000 C.ar    1  UNL1        0.0000
     14 C           0.0000    0.0000    0.0000 C.ar    1  UNL1        0.0000
     15 C           0.0000    0.0000    0.0000 C.ar    1  UNL1        0.0000
     16 C           0.0000    0.0000    0.0000 C.ar    1  UNL1        0.0000
     17 C           0.0000    0.0000    0.0000 C.ar    1  UNL1        0.0000
     18 N           0.0000    0.0000    0.0000 N.ar    1  UNL1        0.0000
     19 C           0.0000    0.0000    0.0000 C.ar    1  UNL1        0.0000
     20 C           0.0000    0.0000    0.0000 C.ar    1  UNL1        0.0000
     21 N           0.0000    0.0000    0.0000 N.ar    1  UNL1        0.0000
     22 C           0.0000    0.0000    0.0000 C.ar    1  UNL1        0.0000
     23 C           0.0000    0.0000    0.0000 C.3     1  UNL1        0.0000
     24 C           0.0000    0.0000    0.0000 C.3     1  UNL1        0.0000
     25 C           0.0000    0.0000    0.0000 C.3     1  UNL1        0.0000
     26 C           0.0000    0.0000    0.0000 C.3     1  UNL1        0.0000
     27 C           0.0000    0.0000    0.0000 C.3     1  UNL1        0.0000
     28 C           0.0000    0.0000    0.0000 C.3     1  UNL1        0.0000
     29 C           0.0000    0.0000    0.0000 C.3     1  UNL1        0.0000
     30 C           0.0000    0.0000    0.0000 C.3     1  UNL1        0.0000
     31 C           0.0000    0.0000    0.0000 C.ar    1  UNL1        0.0000
     32 N           0.0000    0.0000    0.0000 N.ar    1  UNL1        0.0000
     33 N           0.0000    0.0000    0.0000 N.ar    1  UNL1        0.0000
     34 C           0.0000    0.0000    0.0000 C.ar    1  UNL1        0.0000
     35 C           0.0000    0.0000    0.0000 C.ar    1  UNL1        0.0000
     36 H          -1.7935   -1.1345    1.1638 H       1  UNL1        0.0000
     37 H           0.7651   -2.1635    0.9244 H       1  UNL1        0.0000
     38 H          -1.2127    1.4384    1.7324 H       1  UNL1        0.0000
     39 H          -0.3765   -1.4336   -1.9942 H       1  UNL1        0.0000
     40 H          -0.9844   -0.0648    2.1806 H       1  UNL1        0.0000
     41 H           1.7739   -1.0358    1.3389 H       1  UNL1        0.0000
     42 H          -2.3554   -0.6050   -0.2871 H       1  UNL1        0.0000
     43 H          -0.8096    0.8308   -2.1458 H       1  UNL1        0.0000
     44 H           1.9657    1.3291   -0.4381 H       1  UNL1        0.0000
     45 H           1.8270   -1.5641   -0.2252 H       1  UNL1        0.0000
     46 H          -2.0033    0.8449   -0.9660 H       1  UNL1        0.0000
     47 H           0.4615   -0.1414   -2.3697 H       1  UNL1        0.0000
     48 H           1.8960    0.0248   -1.4055 H       1  UNL1        0.0000
     49 H           0.3288    1.1935    2.0246 H       1  UNL1        0.0000
     50 H          -0.3228   -1.5073    1.9090 H       1  UNL1        0.0000
     51 H          -1.4288   -1.8038   -0.7965 H       1  UNL1        0.0000
     52 H          -0.2797    2.2846    0.7511 H       1  UNL1        0.0000
     53 H           0.2633   -2.2561   -0.6742 H       1  UNL1        0.0000
     54 H          -0.7573    2.0171   -1.0499 H       1  UNL1        0.0000
     55 H           0.2633   -2.2561   -0.6742 H       1  UNL1        0.0000
     56 H           1.8208    0.5533    1.5174 H       1  UNL1        0.0000
     57 H           1.2462   -1.3700   -1.7026 H       1  UNL1        0.0000
     58 H          -1.6312   -0.4960   -1.7662 H       1  UNL1        0.0000
     59 H           0.6769   -0.3458    2.3136 H       1  UNL1        0.0000
     60 H          -1.7200    1.8129    0.2425 H       1  UNL1        0.0000
     61 H           0.8133    1.3542   -1.7599 H       1  UNL1        0.0000
     62 H           0.8133    1.3542   -1.7599 H       1  UNL1        0.0000
     63 H           0.7007    2.4054   -0.4959 H       1  UNL1        0.0000
     64 H           2.4267   -0.0996    0.1467 H       1  UNL1        0.0000
     65 H          -0.8430   -2.2828    0.5990 H       1  UNL1        0.0000
     66 H          -2.1533    0.4167    0.9239 H       1  UNL1        0.0000
     67 H           1.2664    1.8775    0.9012 H       1  UNL1        0.0000
     68 EU          0.0000    0.0000    0.0000 Eu      1  UNL1        0.0000
@<TRIPOS>BOND
     1     1     2    2
     2     2     3   am
     3     3     4    1
     4     3     5    1
     5     5     6    1
     6     6     7    1
     7     2     8    1
     8     8     9   ar
     9     9    10   ar
    10     8    11   ar
    11    11    12   ar
    12    12    13   ar
    13    10    13   ar
    14    13    14   ar
    15    14    15   ar
    16    15    16   ar
    17    16    17   ar
    18    12    17   ar
    19    17    18   ar
    20    18    19   ar
    21    19    20    1
    22    20    21   ar
    23    21    22   ar
    24    22    23    1
    25    23    24    1
    26    23    25    1
    27    23    26    1
    28    26    27    1
    29    27    28    1
    30    28    29    1
    31    28    30    1
    32    22    31   ar
    33    28    31    1
    34    31    32   ar
    35    32    33   ar
    36    20    33   ar
    37    19    34   ar
    38    34    35   ar
    39    16    35   ar
    40     4    36    1
    41     4    37    1
    42     4    38    1
    43     5    39    1
    44     5    40    1
    45     6    41    1
    46     6    42    1
    47     7    43    1
    48     7    44    1
    49     7    45    1
    50     9    46    1
    51    10    47    1
    52    14    48    1
    53    15    49    1
    54    24    50    1
    55    24    51    1
    56    24    52    1
    57    25    53    1
    58    25    54    1
    59    25    55    1
    60    26    56    1
    61    26    57    1
    62    27    58    1
    63    27    59    1
    64    29    60    1
    65    29    61    1
    66    29    62    1
    67    30    63    1
    68    30    64    1
    69    30    65    1
    70    34    66    1
    71    35    67    1
    72    68     1    1
    73    68    33    1
    74    68    18    1
    75    68    11    1
@<TRIPOS>MOLECULE
*****
 68 75 0 0 0
SMALL
GASTEIGER

@<TRIPOS>ATOM
      1 O           0.0000    0.0000    0.0000 O.2     1  UNL1        0.0000
      2 C           0.0000    0.0000    0.0000 C.2     1  UNL1        0.0000
      3 N           0.0000    0.0000    0.0000 N.am    1  UNL1        0.0000
      4 C           0.0000    0.0000    0.0000 C.3     1  UNL1        0.0000
      5 C           0.0000    0.0000    0.0000 C.3     1  UNL1        0.0000
      6 C           0.0000    0.0000    0.0000 C.3     1  UNL1        0.0000
      7 C           0.0000    0.0000    0.0000 C.3     1  UNL1        0.0000
      8 C           0.0000    0.0000    0.0000 C.ar    1  UNL1        0.0000
      9 C           0.0000    0.0000    0.0000 C.ar    1  UNL1        0.0000
     10 C           0.0000    0.0000    0.0000 C.ar    1  UNL1        0.0000
     11 N           0.0000    0.0000    0.0000 N.ar    1  UNL1        0.0000
     12 C           0.0000    0.0000    0.0000 C.ar    1  UNL1        0.0000
     13 C           0.0000    0.0000    0.0000 C.ar    1  UNL1        0.0000
     14 C           0.0000    0.0000    0.0000 C.ar    1  UNL1        0.0000
     15 C           0.0000    0.0000    0.0000 C.ar    1  UNL1        0.0000
     16 C           0.0000    0.0000    0.0000 C.ar    1  UNL1        0.0000
     17 C           0.0000    0.0000    0.0000 C.ar    1  UNL1        0.0000
     18 N           0.0000    0.0000    0.0000 N.ar    1  UNL1        0.0000
     19 C           0.0000    0.0000    0.0000 C.ar    1  UNL1        0.0000
     20 C           0.0000    0.0000    0.0000 C.ar    1  UNL1        0.0000
     21 N           0.0000    0.0000    0.0000 N.ar    1  UNL1        0.0000
     22 C           0.0000    0.0000    0.0000 C.ar    1  UNL1        0.0000
     23 C           0.0000    0.0000    0.0000 C.3     1  UNL1        0.0000
     24 C           0.0000    0.0000    0.0000 C.3     1  UNL1        0.0000
     25 C           0.0000    0.0000    0.0000 C.3     1  UNL1        0.0000
     26 C           0.0000    0.0000    0.0000 C.3     1  UNL1        0.0000
     27 C           0.0000    0.0000    0.0000 C.3     1  UNL1        0.0000
     28 C           0.0000    0.0000    0.0000 C.3     1  UNL1        0.0000
     29 C           0.0000    0.0000    0.0000 C.3     1  UNL1        0.0000
     30 C           0.0000    0.0000    0.0000 C.3     1  UNL1        0.0000
     31 C           0.0000    0.0000    0.0000 C.ar    1  UNL1        0.0000
     32 N           0.0000    0.0000    0.0000 N.ar    1  UNL1        0.0000
     33 N           0.0000    0.0000    0.0000 N.ar    1  UNL1        0.0000
     34 C           0.0000    0.0000    0.0000 C.ar    1  UNL1        0.0000
     35 C           0.0000    0.0000    0.0000 C.ar    1  UNL1        0.0000
     36 H          -1.7935   -1.1295    1.1717 H       1  UNL1        0.0000
     37 H           0.7661   -2.1545    0.9363 H       1  UNL1        0.0000
     38 H          -1.2111    1.4295    1.7294 H       1  UNL1        0.0000
     39 H          -0.3823   -1.4318   -1.9839 H       1  UNL1        0.0000
     40 H          -0.9790   -0.0667    2.1859 H       1  UNL1        0.0000
     41 H           1.7805   -1.0258    1.3420 H       1  UNL1        0.0000
     42 H          -2.3537   -0.6093   -0.2843 H       1  UNL1        0.0000
     43 H          -0.8092    0.8210   -2.1487 H       1  UNL1        0.0000
     44 H           1.9708    1.3443   -0.4303 H       1  UNL1        0.0000
     45 H           1.8074   -1.5573   -0.2156 H       1  UNL1        0.0000
     46 H          -2.0029    0.8428   -0.9667 H       1  UNL1        0.0000
     47 H           0.4661   -0.1482   -2.3690 H       1  UNL1        0.0000
     48 H           1.9064    0.0439   -1.4143 H       1  UNL1        0.0000
     49 H           0.3350    1.1950    2.0229 H       1  UNL1        0.0000
     50 H          -0.3240   -1.5068    1.9200 H       1  UNL1        0.0000
     51 H          -1.4258   -1.8072   -0.7862 H       1  UNL1        0.0000
     52 H          -0.2815    2.2845    0.7547 H       1  UNL1        0.0000
     53 H           0.2570   -2.2603   -0.6610 H       1  UNL1        0.0000
     54 H          -0.7639    2.0124   -1.0550 H       1  UNL1        0.0000
     55 H           0.2570   -2.2603   -0.6610 H       1  UNL1        0.0000
     56 H           1.8304    0.5602    1.5087 H       1  UNL1        0.0000
     57 H           1.2407   -1.3736   -1.7031 H       1  UNL1        0.0000
     58 H          -1.6308   -0.5046   -1.7588 H       1  UNL1        0.0000
     59 H           0.6822   -0.3415    2.3131 H       1  UNL1        0.0000
     60 H          -1.7203    1.8116    0.2421 H       1  UNL1        0.0000
     61 H           0.8097    1.3529   -1.7629 H       1  UNL1        0.0000
     62 H           0.8097    1.3529   -1.7629 H       1  UNL1        0.0000
     63 H           0.6917    2.4028   -0.4970 H       1  UNL1        0.0000
     64 H           2.4248   -0.1027    0.1340 H       1  UNL1        0.0000
     65 H          -0.8490   -2.2860    0.6148 H       1  UNL1        0.0000
     66 H          -2.1570    0.4168    0.9224 H       1  UNL1        0.0000
     67 H           1.2692    1.8890    0.9038 H       1  UNL1        0.0000
     68 EU          0.0000    0.0000    0.0000 Eu      1  UNL1        0.0000
@<TRIPOS>BOND
     1     1     2    2
     2     2     3   am
     3     3     4    1
     4     3     5    1
     5     5     6    1
     6     6     7    1
     7     2     8    1
     8     8     9   ar
     9     9    10   ar
    10     8    11   ar
    11    11    12   ar
    12    12    13   ar
    13    10    13   ar
    14    13    14   ar
    15    14    15   ar
    16    15    16   ar
    17    16    17   ar
    18    12    17   ar
    19    17    18   ar
    20    18    19   ar
    21    19    20    1
    22    20    21   ar
    23    21    22   ar
    24    22    23    1
    25    23    24    1
    26    23    25    1
    27    23    26    1
    28    26    27    1
    29    27    28    1
    30    28    29    1
    31    28    30    1
    32    22    31   ar
    33    28    31    1
    34    31    32   ar
    35    32    33   ar
    36    20    33   ar
    37    19    34   ar
    38    34    35   ar
    39    16    35   ar
    40     4    36    1
    41     4    37    1
    42     4    38    1
    43     5    39    1
    44     5    40    1
    45     6    41    1
    46     6    42    1
    47     7    43    1
    48     7    44    1
    49     7    45    1
    50     9    46    1
    51    10    47    1
    52    14    48    1
    53    15    49    1
    54    24    50    1
    55    24    51    1
    56    24    52    1
    57    25    53    1
    58    25    54    1
    59    25    55    1
    60    26    56    1
    61    26    57    1
    62    27    58    1
    63    27    59    1
    64    29    60    1
    65    29    61    1
    66    29    62    1
    67    30    63    1
    68    30    64    1
    69    30    65    1
    70    34    66    1
    71    35    67    1
    72    68     1    1
    73    68    33    1
    74    68    18    1
    75    68    11    1
@<TRIPOS>MOLECULE
*****
 68 75 0 0 0
SMALL
GASTEIGER

@<TRIPOS>ATOM
      1 O           0.0000    0.0000    0.0000 O.2     1  UNL1        0.0000
      2 C           0.0000    0.0000    0.0000 C.2     1  UNL1        0.0000
      3 N           0.0000    0.0000    0.0000 N.am    1  UNL1        0.0000
      4 C           0.0000    0.0000    0.0000 C.3     1  UNL1        0.0000
      5 C           0.0000    0.0000    0.0000 C.3     1  UNL1        0.0000
      6 C           0.0000    0.0000    0.0000 C.3     1  UNL1        0.0000
      7 C           0.0000    0.0000    0.0000 C.3     1  UNL1        0.0000
      8 C           0.0000    0.0000    0.0000 C.ar    1  UNL1        0.0000
      9 C           0.0000    0.0000    0.0000 C.ar    1  UNL1        0.0000
     10 C           0.0000    0.0000    0.0000 C.ar    1  UNL1        0.0000
     11 N           0.0000    0.0000    0.0000 N.ar    1  UNL1        0.0000
     12 C           0.0000    0.0000    0.0000 C.ar    1  UNL1        0.0000
     13 C           0.0000    0.0000    0.0000 C.ar    1  UNL1        0.0000
     14 C           0.0000    0.0000    0.0000 C.ar    1  UNL1        0.0000
     15 C           0.0000    0.0000    0.0000 C.ar    1  UNL1        0.0000
     16 C           0.0000    0.0000    0.0000 C.ar    1  UNL1        0.0000
     17 C           0.0000    0.0000    0.0000 C.ar    1  UNL1        0.0000
     18 N           0.0000    0.0000    0.0000 N.ar    1  UNL1        0.0000
     19 C           0.0000    0.0000    0.0000 C.ar    1  UNL1        0.0000
     20 C           0.0000    0.0000    0.0000 C.ar    1  UNL1        0.0000
     21 N           0.0000    0.0000    0.0000 N.ar    1  UNL1        0.0000
     22 C           0.0000    0.0000    0.0000 C.ar    1  UNL1        0.0000
     23 C           0.0000    0.0000    0.0000 C.3     1  UNL1        0.0000
     24 C           0.0000    0.0000    0.0000 C.3     1  UNL1        0.0000
     25 C           0.0000    0.0000    0.0000 C.3     1  UNL1        0.0000
     26 C           0.0000    0.0000    0.0000 C.3     1  UNL1        0.0000
     27 C           0.0000    0.0000    0.0000 C.3     1  UNL1        0.0000
     28 C           0.0000    0.0000    0.0000 C.3     1  UNL1        0.0000
     29 C           0.0000    0.0000    0.0000 C.3     1  UNL1        0.0000
     30 C           0.0000    0.0000    0.0000 C.3     1  UNL1        0.0000
     31 C           0.0000    0.0000    0.0000 C.ar    1  UNL1        0.0000
     32 N           0.0000    0.0000    0.0000 N.ar    1  UNL1        0.0000
     33 N           0.0000    0.0000    0.0000 N.ar    1  UNL1        0.0000
     34 C           0.0000    0.0000    0.0000 C.ar    1  UNL1        0.0000
     35 C           0.0000    0.0000    0.0000 C.ar    1  UNL1        0.0000
     36 H          -1.7936   -1.1308    1.1660 H       1  UNL1        0.0000
     37 H           0.7604   -2.1592    0.9284 H       1  UNL1        0.0000
     38 H          -1.2108    1.4378    1.7360 H       1  UNL1        0.0000
     39 H          -0.3805   -1.4371   -1.9959 H       1  UNL1        0.0000
     40 H          -0.9796   -0.0649    2.1843 H       1  UNL1        0.0000
     41 H           1.7851   -1.0393    1.3327 H       1  UNL1        0.0000
     42 H          -2.3573   -0.5846   -0.2954 H       1  UNL1        0.0000
     43 H          -0.8144    0.8411   -2.1409 H       1  UNL1        0.0000
     44 H           1.9735    1.3401   -0.4218 H       1  UNL1        0.0000
     45 H           1.8174   -1.5717   -0.2244 H       1  UNL1        0.0000
     46 H          -2.0247    0.8582   -0.9630 H       1  UNL1        0.0000
     47 H           0.4527   -0.1396   -2.3660 H       1  UNL1        0.0000
     48 H           1.9052    0.0493   -1.4196 H       1  UNL1        0.0000
     49 H           0.3321    1.1844    2.0292 H       1  UNL1        0.0000
     50 H          -0.3316   -1.5086    1.9131 H       1  UNL1        0.0000
     51 H          -1.4324   -1.7908   -0.7921 H       1  UNL1        0.0000
     52 H          -0.2773    2.2856    0.7562 H       1  UNL1        0.0000
     53 H           0.2597   -2.2569   -0.6738 H       1  UNL1        0.0000
     54 H          -0.7539    2.0206   -1.0444 H       1  UNL1        0.0000
     55 H           0.2597   -2.2569   -0.6738 H       1  UNL1        0.0000
     56 H           1.8294    0.5499    1.5051 H       1  UNL1        0.0000
     57 H           1.2432   -1.3655   -1.7010 H       1  UNL1        0.0000
     58 H          -1.6296   -0.4862   -1.7637 H       1  UNL1        0.0000
     59 H           0.6855   -0.3535    2.3040 H       1  UNL1        0.0000
     60 H          -1.7158    1.8183    0.2454 H       1  UNL1        0.0000
     61 H           0.8098    1.3581   -1.7586 H       1  UNL1        0.0000
     62 H           0.8098    1.3581   -1.7586 H       1  UNL1        0.0000
     63 H           0.7052    2.4068   -0.4906 H       1  UNL1        0.0000
     64 H           2.4255   -0.1107    0.1287 H       1  UNL1        0.0000
     65 H          -0.8472   -2.2785    0.6007 H       1  UNL1        0.0000
     66 H          -2.1498    0.4222    0.9216 H       1  UNL1        0.0000
     67 H           1.2676    1.8836    0.9134 H       1  UNL1        0.0000
     68 EU          0.0000    0.0000    0.0000 Eu      1  UNL1        0.0000
@<TRIPOS>BOND
     1     1     2    2
     2     2     3   am
     3     3     4    1
     4     3     5    1
     5     5     6    1
     6     6     7    1
     7     2     8    1
     8     8     9   ar
     9     9    10   ar
    10     8    11   ar
    11    11    12   ar
    12    12    13   ar
    13    10    13   ar
    14    13    14   ar
    15    14    15   ar
    16    15    16   ar
    17    16    17   ar
    18    12    17   ar
    19    17    18   ar
    20    18    19   ar
    21    19    20    1
    22    20    21   ar
    23    21    22   ar
    24    22    23    1
    25    23    24    1
    26    23    25    1
    27    23    26    1
    28    26    27    1
    29    27    28    1
    30    28    29    1
    31    28    30    1
    32    22    31   ar
    33    28    31    1
    34    31    32   ar
    35    32    33   ar
    36    20    33   ar
    37    19    34   ar
    38    34    35   ar
    39    16    35   ar
    40     4    36    1
    41     4    37    1
    42     4    38    1
    43     5    39    1
    44     5    40    1
    45     6    41    1
    46     6    42    1
    47     7    43    1
    48     7    44    1
    49     7    45    1
    50     9    46    1
    51    10    47    1
    52    14    48    1
    53    15    49    1
    54    24    50    1
    55    24    51    1
    56    24    52    1
    57    25    53    1
    58    25    54    1
    59    25    55    1
    60    26    56    1
    61    26    57    1
    62    27    58    1
    63    27    59    1
    64    29    60    1
    65    29    61    1
    66    29    62    1
    67    30    63    1
    68    30    64    1
    69    30    65    1
    70    34    66    1
    71    35    67    1
    72    68     1    1
    73    68    33    1
    74    68    18    1
    75    68    11    1
@<TRIPOS>MOLECULE
*****
 68 75 0 0 0
SMALL
GASTEIGER

@<TRIPOS>ATOM
      1 O           0.0000    0.0000    0.0000 O.2     1  UNL1        0.0000
      2 C           0.0000    0.0000    0.0000 C.2     1  UNL1        0.0000
      3 N           0.0000    0.0000    0.0000 N.am    1  UNL1        0.0000
      4 C           0.0000    0.0000    0.0000 C.3     1  UNL1        0.0000
      5 C           0.0000    0.0000    0.0000 C.3     1  UNL1        0.0000
      6 C           0.0000    0.0000    0.0000 C.3     1  UNL1        0.0000
      7 C           0.0000    0.0000    0.0000 C.3     1  UNL1        0.0000
      8 C           0.0000    0.0000    0.0000 C.ar    1  UNL1        0.0000
      9 C           0.0000    0.0000    0.0000 C.ar    1  UNL1        0.0000
     10 C           0.0000    0.0000    0.0000 C.ar    1  UNL1        0.0000
     11 N           0.0000    0.0000    0.0000 N.ar    1  UNL1        0.0000
     12 C           0.0000    0.0000    0.0000 C.ar    1  UNL1        0.0000
     13 C           0.0000    0.0000    0.0000 C.ar    1  UNL1        0.0000
     14 C           0.0000    0.0000    0.0000 C.ar    1  UNL1        0.0000
     15 C           0.0000    0.0000    0.0000 C.ar    1  UNL1        0.0000
     16 C           0.0000    0.0000    0.0000 C.ar    1  UNL1        0.0000
     17 C           0.0000    0.0000    0.0000 C.ar    1  UNL1        0.0000
     18 N           0.0000    0.0000    0.0000 N.ar    1  UNL1        0.0000
     19 C           0.0000    0.0000    0.0000 C.ar    1  UNL1        0.0000
     20 C           0.0000    0.0000    0.0000 C.ar    1  UNL1        0.0000
     21 N           0.0000    0.0000    0.0000 N.ar    1  UNL1        0.0000
     22 C           0.0000    0.0000    0.0000 C.ar    1  UNL1        0.0000
     23 C           0.0000    0.0000    0.0000 C.3     1  UNL1        0.0000
     24 C           0.0000    0.0000    0.0000 C.3     1  UNL1        0.0000
     25 C           0.0000    0.0000    0.0000 C.3     1  UNL1        0.0000
     26 C           0.0000    0.0000    0.0000 C.3     1  UNL1        0.0000
     27 C           0.0000    0.0000    0.0000 C.3     1  UNL1        0.0000
     28 C           0.0000    0.0000    0.0000 C.3     1  UNL1        0.0000
     29 C           0.0000    0.0000    0.0000 C.3     1  UNL1        0.0000
     30 C           0.0000    0.0000    0.0000 C.3     1  UNL1        0.0000
     31 C           0.0000    0.0000    0.0000 C.ar    1  UNL1        0.0000
     32 N           0.0000    0.0000    0.0000 N.ar    1  UNL1        0.0000
     33 N           0.0000    0.0000    0.0000 N.ar    1  UNL1        0.0000
     34 C           0.0000    0.0000    0.0000 C.ar    1  UNL1        0.0000
     35 C           0.0000    0.0000    0.0000 C.ar    1  UNL1        0.0000
     36 H          -1.8045   -1.1365    1.1637 H       1  UNL1        0.0000
     37 H           0.7687   -2.1639    0.9263 H       1  UNL1        0.0000
     38 H          -1.1984    1.4442    1.7324 H       1  UNL1        0.0000
     39 H          -0.3903   -1.4331   -1.9957 H       1  UNL1        0.0000
     40 H          -0.9812   -0.0600    2.1845 H       1  UNL1        0.0000
     41 H           1.7772   -1.0367    1.3375 H       1  UNL1        0.0000
     42 H          -2.3585   -0.5947   -0.2812 H       1  UNL1        0.0000
     43 H          -0.8128    0.8299   -2.1471 H       1  UNL1        0.0000
     44 H           1.9779    1.3366   -0.4327 H       1  UNL1        0.0000
     45 H           1.8140   -1.5734   -0.2262 H       1  UNL1        0.0000
     46 H          -2.0022    0.8549   -0.9617 H       1  UNL1        0.0000
     47 H           0.4573   -0.1431   -2.3729 H       1  UNL1        0.0000
     48 H           1.9048    0.0374   -1.4229 H       1  UNL1        0.0000
     49 H           0.3465    1.1897    2.0256 H       1  UNL1        0.0000
     50 H          -0.3278   -1.5022    1.9112 H       1  UNL1        0.0000
     51 H          -1.4409   -1.7997   -0.7947 H       1  UNL1        0.0000
     52 H          -0.2621    2.2868    0.7507 H       1  UNL1        0.0000
     53 H           0.2547   -2.2587   -0.6763 H       1  UNL1        0.0000
     54 H          -0.7497    2.0189   -1.0495 H       1  UNL1        0.0000
     55 H           0.2547   -2.2587   -0.6763 H       1  UNL1        0.0000
     56 H           1.8353    0.5494    1.5058 H       1  UNL1        0.0000
     57 H           1.2409   -1.3775   -1.7155 H       1  UNL1        0.0000
     58 H          -1.6398   -0.4887   -1.7593 H       1  UNL1        0.0000
     59 H           0.6800   -0.3467    2.3092 H       1  UNL1        0.0000
     60 H          -1.7064    1.8193    0.2446 H       1  UNL1        0.0000
     61 H           0.8147    1.3505   -1.7624 H       1  UNL1        0.0000
     62 H           0.8147    1.3505   -1.7624 H       1  UNL1        0.0000
     63 H           0.7116    2.4003   -0.4998 H       1  UNL1        0.0000
     64 H           2.4246   -0.1169    0.1273 H       1  UNL1        0.0000
     65 H          -0.8463   -2.2695    0.6032 H       1  UNL1        0.0000
     66 H          -2.1459    0.4289    0.9309 H       1  UNL1        0.0000
     67 H           1.2810    1.8798    0.9019 H       1  UNL1        0.0000
     68 EU          0.0000    0.0000    0.0000 Eu      1  UNL1        0.0000
@<TRIPOS>BOND
     1     1     2    2
     2     2     3   am
     3     3     4    1
     4     3     5    1
     5     5     6    1
     6     6     7    1
     7     2     8    1
     8     8     9   ar
     9     9    10   ar
    10     8    11   ar
    11    11    12   ar
    12    12    13   ar
    13    10    13   ar
    14    13    14   ar
    15    14    15   ar
    16    15    16   ar
    17    16    17   ar
    18    12    17   ar
    19    17    18   ar
    20    18    19   ar
    21    19    20    1
    22    20    21   ar
    23    21    22   ar
    24    22    23    1
    25    23    24    1
    26    23    25    1
    27    23    26    1
    28    26    27    1
    29    27    28    1
    30    28    29    1
    31    28    30    1
    32    22    31   ar
    33    28    31    1
    34    31    32   ar
    35    32    33   ar
    36    20    33   ar
    37    19    34   ar
    38    34    35   ar
    39    16    35   ar
    40     4    36    1
    41     4    37    1
    42     4    38    1
    43     5    39    1
    44     5    40    1
    45     6    41    1
    46     6    42    1
    47     7    43    1
    48     7    44    1
    49     7    45    1
    50     9    46    1
    51    10    47    1
    52    14    48    1
    53    15    49    1
    54    24    50    1
    55    24    51    1
    56    24    52    1
    57    25    53    1
    58    25    54    1
    59    25    55    1
    60    26    56    1
    61    26    57    1
    62    27    58    1
    63    27    59    1
    64    29    60    1
    65    29    61    1
    66    29    62    1
    67    30    63    1
    68    30    64    1
    69    30    65    1
    70    34    66    1
    71    35    67    1
    72    68     1    1
    73    68    33    1
    74    68    18    1
    75    68    11    1
@<TRIPOS>MOLECULE
*****
 68 75 0 0 0
SMALL
GASTEIGER

@<TRIPOS>ATOM
      1 O           0.0000    0.0000    0.0000 O.2     1  UNL1        0.0000
      2 C           0.0000    0.0000    0.0000 C.2     1  UNL1        0.0000
      3 N           0.0000    0.0000    0.0000 N.am    1  UNL1        0.0000
      4 C           0.0000    0.0000    0.0000 C.3     1  UNL1        0.0000
      5 C           0.0000    0.0000    0.0000 C.3     1  UNL1        0.0000
      6 C           0.0000    0.0000    0.0000 C.3     1  UNL1        0.0000
      7 C           0.0000    0.0000    0.0000 C.3     1  UNL1        0.0000
      8 C           0.0000    0.0000    0.0000 C.ar    1  UNL1        0.0000
      9 C           0.0000    0.0000    0.0000 C.ar    1  UNL1        0.0000
     10 C           0.0000    0.0000    0.0000 C.ar    1  UNL1        0.0000
     11 N           0.0000    0.0000    0.0000 N.ar    1  UNL1        0.0000
     12 C           0.0000    0.0000    0.0000 C.ar    1  UNL1        0.0000
     13 C           0.0000    0.0000    0.0000 C.ar    1  UNL1        0.0000
     14 C           0.0000    0.0000    0.0000 C.ar    1  UNL1        0.0000
     15 C           0.0000    0.0000    0.0000 C.ar    1  UNL1        0.0000
     16 C           0.0000    0.0000    0.0000 C.ar    1  UNL1        0.0000
     17 C           0.0000    0.0000    0.0000 C.ar    1  UNL1        0.0000
     18 N           0.0000    0.0000    0.0000 N.ar    1  UNL1        0.0000
     19 C           0.0000    0.0000    0.0000 C.ar    1  UNL1        0.0000
     20 C           0.0000    0.0000    0.0000 C.ar    1  UNL1        0.0000
     21 N           0.0000    0.0000    0.0000 N.ar    1  UNL1        0.0000
     22 C           0.0000    0.0000    0.0000 C.ar    1  UNL1        0.0000
     23 C           0.0000    0.0000    0.0000 C.3     1  UNL1        0.0000
     24 C           0.0000    0.0000    0.0000 C.3     1  UNL1        0.0000
     25 C           0.0000    0.0000    0.0000 C.3     1  UNL1        0.0000
     26 C           0.0000    0.0000    0.0000 C.3     1  UNL1        0.0000
     27 C           0.0000    0.0000    0.0000 C.3     1  UNL1        0.0000
     28 C           0.0000    0.0000    0.0000 C.3     1  UNL1        0.0000
     29 C           0.0000    0.0000    0.0000 C.3     1  UNL1        0.0000
     30 C           0.0000    0.0000    0.0000 C.3     1  UNL1        0.0000
     31 C           0.0000    0.0000    0.0000 C.ar    1  UNL1        0.0000
     32 N           0.0000    0.0000    0.0000 N.ar    1  UNL1        0.0000
     33 N           0.0000    0.0000    0.0000 N.ar    1  UNL1        0.0000
     34 C           0.0000    0.0000    0.0000 C.ar    1  UNL1        0.0000
     35 C           0.0000    0.0000    0.0000 C.ar    1  UNL1        0.0000
     36 H          -1.7938   -1.1195    1.1780 H       1  UNL1        0.0000
     37 H           0.7586   -2.1599    0.9217 H       1  UNL1        0.0000
     38 H          -1.2012    1.4417    1.7436 H       1  UNL1        0.0000
     39 H          -0.3999   -1.4252   -1.9918 H       1  UNL1        0.0000
     40 H          -0.9745   -0.0588    2.1873 H       1  UNL1        0.0000
     41 H           1.7796   -1.0439    1.3323 H       1  UNL1        0.0000
     42 H          -2.3590   -0.5941   -0.2737 H       1  UNL1        0.0000
     43 H          -0.8175    0.8337   -2.1397 H       1  UNL1        0.0000
     44 H           1.9809    1.3297   -0.4302 H       1  UNL1        0.0000
     45 H           1.8091   -1.5777   -0.2318 H       1  UNL1        0.0000
     46 H          -2.0030    0.8579   -0.9453 H       1  UNL1        0.0000
     47 H           0.4482   -0.1406   -2.3737 H       1  UNL1        0.0000
     48 H           1.9014    0.0337   -1.4213 H       1  UNL1        0.0000
     49 H           0.3435    1.1847    2.0289 H       1  UNL1        0.0000
     50 H          -0.3390   -1.4982    1.9065 H       1  UNL1        0.0000
     51 H          -1.4436   -1.7958   -0.7909 H       1  UNL1        0.0000
     52 H          -0.2609    2.2989    0.7590 H       1  UNL1        0.0000
     53 H           0.2439   -2.2584   -0.6752 H       1  UNL1        0.0000
     54 H          -0.7497    2.0245   -1.0403 H       1  UNL1        0.0000
     55 H           0.2439   -2.2584   -0.6752 H       1  UNL1        0.0000
     56 H           1.8356    0.5429    1.5066 H       1  UNL1        0.0000
     57 H           1.2280   -1.3762   -1.7106 H       1  UNL1        0.0000
     58 H          -1.6506   -0.4818   -1.7534 H       1  UNL1        0.0000
     59 H           0.6876   -0.3502    2.3114 H       1  UNL1        0.0000
     60 H          -1.7103    1.8255    0.2491 H       1  UNL1        0.0000
     61 H           0.8136    1.3507   -1.7626 H       1  UNL1        0.0000
     62 H           0.8136    1.3507   -1.7626 H       1  UNL1        0.0000
     63 H           0.7111    2.3995   -0.4969 H       1  UNL1        0.0000
     64 H           2.4243   -0.1208    0.1282 H       1  UNL1        0.0000
     65 H          -0.8527   -2.2703    0.6073 H       1  UNL1        0.0000
     66 H          -2.1461    0.4311    0.9307 H       1  UNL1        0.0000
     67 H           1.2816    1.8771    0.9081 H       1  UNL1        0.0000
     68 EU          0.0000    0.0000    0.0000 Eu      1  UNL1        0.0000
@<TRIPOS>BOND
     1     1     2    2
     2     2     3   am
     3     3     4    1
     4     3     5    1
     5     5     6    1
     6     6     7    1
     7     2     8    1
     8     8     9   ar
     9     9    10   ar
    10     8    11   ar
    11    11    12   ar
    12    12    13   ar
    13    10    13   ar
    14    13    14   ar
    15    14    15   ar
    16    15    16   ar
    17    16    17   ar
    18    12    17   ar
    19    17    18   ar
    20    18    19   ar
    21    19    20    1
    22    20    21   ar
    23    21    22   ar
    24    22    23    1
    25    23    24    1
    26    23    25    1
    27    23    26    1
    28    26    27    1
    29    27    28    1
    30    28    29    1
    31    28    30    1
    32    22    31   ar
    33    28    31    1
    34    31    32   ar
    35    32    33   ar
    36    20    33   ar
    37    19    34   ar
    38    34    35   ar
    39    16    35   ar
    40     4    36    1
    41     4    37    1
    42     4    38    1
    43     5    39    1
    44     5    40    1
    45     6    41    1
    46     6    42    1
    47     7    43    1
    48     7    44    1
    49     7    45    1
    50     9    46    1
    51    10    47    1
    52    14    48    1
    53    15    49    1
    54    24    50    1
    55    24    51    1
    56    24    52    1
    57    25    53    1
    58    25    54    1
    59    25    55    1
    60    26    56    1
    61    26    57    1
    62    27    58    1
    63    27    59    1
    64    29    60    1
    65    29    61    1
    66    29    62    1
    67    30    63    1
    68    30    64    1
    69    30    65    1
    70    34    66    1
    71    35    67    1
    72    68     1    1
    73    68    33    1
    74    68    18    1
    75    68    11    1
@<TRIPOS>MOLECULE
*****
 68 75 0 0 0
SMALL
GASTEIGER

@<TRIPOS>ATOM
      1 O           0.0000    0.0000    0.0000 O.2     1  UNL1        0.0000
      2 C           0.0000    0.0000    0.0000 C.2     1  UNL1        0.0000
      3 N           0.0000    0.0000    0.0000 N.am    1  UNL1        0.0000
      4 C           0.0000    0.0000    0.0000 C.3     1  UNL1        0.0000
      5 C           0.0000    0.0000    0.0000 C.3     1  UNL1        0.0000
      6 C           0.0000    0.0000    0.0000 C.3     1  UNL1        0.0000
      7 C           0.0000    0.0000    0.0000 C.3     1  UNL1        0.0000
      8 C           0.0000    0.0000    0.0000 C.ar    1  UNL1        0.0000
      9 C           0.0000    0.0000    0.0000 C.ar    1  UNL1        0.0000
     10 C           0.0000    0.0000    0.0000 C.ar    1  UNL1        0.0000
     11 N           0.0000    0.0000    0.0000 N.ar    1  UNL1        0.0000
     12 C           0.0000    0.0000    0.0000 C.ar    1  UNL1        0.0000
     13 C           0.0000    0.0000    0.0000 C.ar    1  UNL1        0.0000
     14 C           0.0000    0.0000    0.0000 C.ar    1  UNL1        0.0000
     15 C           0.0000    0.0000    0.0000 C.ar    1  UNL1        0.0000
     16 C           0.0000    0.0000    0.0000 C.ar    1  UNL1        0.0000
     17 C           0.0000    0.0000    0.0000 C.ar    1  UNL1        0.0000
     18 N           0.0000    0.0000    0.0000 N.ar    1  UNL1        0.0000
     19 C           0.0000    0.0000    0.0000 C.ar    1  UNL1        0.0000
     20 C           0.0000    0.0000    0.0000 C.ar    1  UNL1        0.0000
     21 N           0.0000    0.0000    0.0000 N.ar    1  UNL1        0.0000
     22 C           0.0000    0.0000    0.0000 C.ar    1  UNL1        0.0000
     23 C           0.0000    0.0000    0.0000 C.3     1  UNL1        0.0000
     24 C           0.0000    0.0000    0.0000 C.3     1  UNL1        0.0000
     25 C           0.0000    0.0000    0.0000 C.3     1  UNL1        0.0000
     26 C           0.0000    0.0000    0.0000 C.3     1  UNL1        0.0000
     27 C           0.0000    0.0000    0.0000 C.3     1  UNL1        0.0000
     28 C           0.0000    0.0000    0.0000 C.3     1  UNL1        0.0000
     29 C           0.0000    0.0000    0.0000 C.3     1  UNL1        0.0000
     30 C           0.0000    0.0000    0.0000 C.3     1  UNL1        0.0000
     31 C           0.0000    0.0000    0.0000 C.ar    1  UNL1        0.0000
     32 N           0.0000    0.0000    0.0000 N.ar    1  UNL1        0.0000
     33 N           0.0000    0.0000    0.0000 N.ar    1  UNL1        0.0000
     34 C           0.0000    0.0000    0.0000 C.ar    1  UNL1        0.0000
     35 C           0.0000    0.0000    0.0000 C.ar    1  UNL1        0.0000
     36 H          -1.7986   -1.1118    1.1803 H       1  UNL1        0.0000
     37 H           0.7485   -2.1684    0.9264 H       1  UNL1        0.0000
     38 H          -1.1956    1.4501    1.7360 H       1  UNL1        0.0000
     39 H          -0.3901   -1.4362   -1.9957 H       1  UNL1        0.0000
     40 H          -0.9768   -0.0527    2.1879 H       1  UNL1        0.0000
     41 H           1.7699   -1.0492    1.3350 H       1  UNL1        0.0000
     42 H          -2.3567   -0.5961   -0.2743 H       1  UNL1        0.0000
     43 H          -0.8071    0.8356   -2.1381 H       1  UNL1        0.0000
     44 H           1.9815    1.3216   -0.4312 H       1  UNL1        0.0000
     45 H           1.8054   -1.5847   -0.2246 H       1  UNL1        0.0000
     46 H          -2.0043    0.8583   -0.9534 H       1  UNL1        0.0000
     47 H           0.4564   -0.1429   -2.3731 H       1  UNL1        0.0000
     48 H           1.9039    0.0313   -1.4216 H       1  UNL1        0.0000
     49 H           0.3496    1.1931    2.0246 H       1  UNL1        0.0000
     50 H          -0.3312   -1.4998    1.9148 H       1  UNL1        0.0000
     51 H          -1.4455   -1.7976   -0.7953 H       1  UNL1        0.0000
     52 H          -0.2565    2.2863    0.7564 H       1  UNL1        0.0000
     53 H           0.2417   -2.2600   -0.6701 H       1  UNL1        0.0000
     54 H          -0.7449    2.0239   -1.0508 H       1  UNL1        0.0000
     55 H           0.2417   -2.2600   -0.6701 H       1  UNL1        0.0000
     56 H           1.8390    0.5386    1.5058 H       1  UNL1        0.0000
     57 H           1.2351   -1.3802   -1.7040 H       1  UNL1        0.0000
     58 H          -1.6416   -0.4880   -1.7575 H       1  UNL1        0.0000
     59 H           0.6861   -0.3436    2.3119 H       1  UNL1        0.0000
     60 H          -1.6998    1.8324    0.2516 H       1  UNL1        0.0000
     61 H           0.8166    1.3525   -1.7618 H       1  UNL1        0.0000
     62 H           0.8166    1.3525   -1.7618 H       1  UNL1        0.0000
     63 H           0.7171    2.3980   -0.4944 H       1  UNL1        0.0000
     64 H           2.4232   -0.1278    0.1280 H       1  UNL1        0.0000
     65 H          -0.8589   -2.2589    0.6020 H       1  UNL1        0.0000
     66 H          -2.1473    0.4378    0.9277 H       1  UNL1        0.0000
     67 H           1.2898    1.8749    0.9055 H       1  UNL1        0.0000
     68 EU          0.0000    0.0000    0.0000 Eu      1  UNL1        0.0000
@<TRIPOS>BOND
     1     1     2    2
     2     2     3   am
     3     3     4    1
     4     3     5    1
     5     5     6    1
     6     6     7    1
     7     2     8    1
     8     8     9   ar
     9     9    10   ar
    10     8    11   ar
    11    11    12   ar
    12    12    13   ar
    13    10    13   ar
    14    13    14   ar
    15    14    15   ar
    16    15    16   ar
    17    16    17   ar
    18    12    17   ar
    19    17    18   ar
    20    18    19   ar
    21    19    20    1
    22    20    21   ar
    23    21    22   ar
    24    22    23    1
    25    23    24    1
    26    23    25    1
    27    23    26    1
    28    26    27    1
    29    27    28    1
    30    28    29    1
    31    28    30    1
    32    22    31   ar
    33    28    31    1
    34    31    32   ar
    35    32    33   ar
    36    20    33   ar
    37    19    34   ar
    38    34    35   ar
    39    16    35   ar
    40     4    36    1
    41     4    37    1
    42     4    38    1
    43     5    39    1
    44     5    40    1
    45     6    41    1
    46     6    42    1
    47     7    43    1
    48     7    44    1
    49     7    45    1
    50     9    46    1
    51    10    47    1
    52    14    48    1
    53    15    49    1
    54    24    50    1
    55    24    51    1
    56    24    52    1
    57    25    53    1
    58    25    54    1
    59    25    55    1
    60    26    56    1
    61    26    57    1
    62    27    58    1
    63    27    59    1
    64    29    60    1
    65    29    61    1
    66    29    62    1
    67    30    63    1
    68    30    64    1
    69    30    65    1
    70    34    66    1
    71    35    67    1
    72    68     1    1
    73    68    33    1
    74    68    18    1
    75    68    11    1
@<TRIPOS>MOLECULE
*****
 68 75 0 0 0
SMALL
GASTEIGER

@<TRIPOS>ATOM
      1 O           0.0000    0.0000    0.0000 O.2     1  UNL1        0.0000
      2 C           0.0000    0.0000    0.0000 C.2     1  UNL1        0.0000
      3 N           0.0000    0.0000    0.0000 N.am    1  UNL1        0.0000
      4 C           0.0000    0.0000    0.0000 C.3     1  UNL1        0.0000
      5 C           0.0000    0.0000    0.0000 C.3     1  UNL1        0.0000
      6 C           0.0000    0.0000    0.0000 C.3     1  UNL1        0.0000
      7 C           0.0000    0.0000    0.0000 C.3     1  UNL1        0.0000
      8 C           0.0000    0.0000    0.0000 C.ar    1  UNL1        0.0000
      9 C           0.0000    0.0000    0.0000 C.ar    1  UNL1        0.0000
     10 C           0.0000    0.0000    0.0000 C.ar    1  UNL1        0.0000
     11 N           0.0000    0.0000    0.0000 N.ar    1  UNL1        0.0000
     12 C           0.0000    0.0000    0.0000 C.ar    1  UNL1        0.0000
     13 C           0.0000    0.0000    0.0000 C.ar    1  UNL1        0.0000
     14 C           0.0000    0.0000    0.0000 C.ar    1  UNL1        0.0000
     15 C           0.0000    0.0000    0.0000 C.ar    1  UNL1        0.0000
     16 C           0.0000    0.0000    0.0000 C.ar    1  UNL1        0.0000
     17 C           0.0000    0.0000    0.0000 C.ar    1  UNL1        0.0000
     18 N           0.0000    0.0000    0.0000 N.ar    1  UNL1        0.0000
     19 C           0.0000    0.0000    0.0000 C.ar    1  UNL1        0.0000
     20 C           0.0000    0.0000    0.0000 C.ar    1  UNL1        0.0000
     21 N           0.0000    0.0000    0.0000 N.ar    1  UNL1        0.0000
     22 C           0.0000    0.0000    0.0000 C.ar    1  UNL1        0.0000
     23 C           0.0000    0.0000    0.0000 C.3     1  UNL1        0.0000
     24 C           0.0000    0.0000    0.0000 C.3     1  UNL1        0.0000
     25 C           0.0000    0.0000    0.0000 C.3     1  UNL1        0.0000
     26 C           0.0000    0.0000    0.0000 C.3     1  UNL1        0.0000
     27 C           0.0000    0.0000    0.0000 C.3     1  UNL1        0.0000
     28 C           0.0000    0.0000    0.0000 C.3     1  UNL1        0.0000
     29 C           0.0000    0.0000    0.0000 C.3     1  UNL1        0.0000
     30 C           0.0000    0.0000    0.0000 C.3     1  UNL1        0.0000
     31 C           0.0000    0.0000    0.0000 C.ar    1  UNL1        0.0000
     32 N           0.0000    0.0000    0.0000 N.ar    1  UNL1        0.0000
     33 N           0.0000    0.0000    0.0000 N.ar    1  UNL1        0.0000
     34 C           0.0000    0.0000    0.0000 C.ar    1  UNL1        0.0000
     35 C           0.0000    0.0000    0.0000 C.ar    1  UNL1        0.0000
     36 H          -1.7923   -1.1211    1.1790 H       1  UNL1        0.0000
     37 H           0.7625   -2.1537    0.9342 H       1  UNL1        0.0000
     38 H          -1.1941    1.4482    1.7345 H       1  UNL1        0.0000
     39 H          -0.3973   -1.4429   -1.9878 H       1  UNL1        0.0000
     40 H          -0.9708   -0.0530    2.1874 H       1  UNL1        0.0000
     41 H           1.7823   -1.0334    1.3381 H       1  UNL1        0.0000
     42 H          -2.3588   -0.5962   -0.2676 H       1  UNL1        0.0000
     43 H          -0.8232    0.8337   -2.1395 H       1  UNL1        0.0000
     44 H           1.9782    1.3318   -0.4394 H       1  UNL1        0.0000
     45 H           1.8240   -1.5780   -0.2291 H       1  UNL1        0.0000
     46 H          -2.0076    0.8531   -0.9512 H       1  UNL1        0.0000
     47 H           0.4377   -0.1488   -2.3715 H       1  UNL1        0.0000
     48 H           1.8989    0.0317   -1.4266 H       1  UNL1        0.0000
     49 H           0.3492    1.1944    2.0168 H       1  UNL1        0.0000
     50 H          -0.3270   -1.5000    1.9196 H       1  UNL1        0.0000
     51 H          -1.4427   -1.8005   -0.7818 H       1  UNL1        0.0000
     52 H          -0.2619    2.2820    0.7460 H       1  UNL1        0.0000
     53 H           0.2470   -2.2603   -0.6662 H       1  UNL1        0.0000
     54 H          -0.7543    2.0190   -1.0456 H       1  UNL1        0.0000
     55 H           0.2470   -2.2603   -0.6662 H       1  UNL1        0.0000
     56 H           1.8325    0.5565    1.5054 H       1  UNL1        0.0000
     57 H           1.2431   -1.3775   -1.7219 H       1  UNL1        0.0000
     58 H          -1.6422   -0.4922   -1.7522 H       1  UNL1        0.0000
     59 H           0.6876   -0.3472    2.3116 H       1  UNL1        0.0000
     60 H          -1.7107    1.8254    0.2466 H       1  UNL1        0.0000
     61 H           0.8069    1.3447   -1.7690 H       1  UNL1        0.0000
     62 H           0.8069    1.3447   -1.7690 H       1  UNL1        0.0000
     63 H           0.7105    2.4067   -0.5114 H       1  UNL1        0.0000
     64 H           2.4233   -0.1146    0.1292 H       1  UNL1        0.0000
     65 H          -0.8515   -2.2725    0.6125 H       1  UNL1        0.0000
     66 H          -2.1443    0.4283    0.9383 H       1  UNL1        0.0000
     67 H           1.2862    1.8893    0.8960 H       1  UNL1        0.0000
     68 EU          0.0000    0.0000    0.0000 Eu      1  UNL1        0.0000
@<TRIPOS>BOND
     1     1     2    2
     2     2     3   am
     3     3     4    1
     4     3     5    1
     5     5     6    1
     6     6     7    1
     7     2     8    1
     8     8     9   ar
     9     9    10   ar
    10     8    11   ar
    11    11    12   ar
    12    12    13   ar
    13    10    13   ar
    14    13    14   ar
    15    14    15   ar
    16    15    16   ar
    17    16    17   ar
    18    12    17   ar
    19    17    18   ar
    20    18    19   ar
    21    19    20    1
    22    20    21   ar
    23    21    22   ar
    24    22    23    1
    25    23    24    1
    26    23    25    1
    27    23    26    1
    28    26    27    1
    29    27    28    1
    30    28    29    1
    31    28    30    1
    32    22    31   ar
    33    28    31    1
    34    31    32   ar
    35    32    33   ar
    36    20    33   ar
    37    19    34   ar
    38    34    35   ar
    39    16    35   ar
    40     4    36    1
    41     4    37    1
    42     4    38    1
    43     5    39    1
    44     5    40    1
    45     6    41    1
    46     6    42    1
    47     7    43    1
    48     7    44    1
    49     7    45    1
    50     9    46    1
    51    10    47    1
    52    14    48    1
    53    15    49    1
    54    24    50    1
    55    24    51    1
    56    24    52    1
    57    25    53    1
    58    25    54    1
    59    25    55    1
    60    26    56    1
    61    26    57    1
    62    27    58    1
    63    27    59    1
    64    29    60    1
    65    29    61    1
    66    29    62    1
    67    30    63    1
    68    30    64    1
    69    30    65    1
    70    34    66    1
    71    35    67    1
    72    68     1    1
    73    68    33    1
    74    68    18    1
    75    68    11    1
@<TRIPOS>MOLECULE
*****
 68 75 0 0 0
SMALL
GASTEIGER

@<TRIPOS>ATOM
      1 O           0.0000    0.0000    0.0000 O.2     1  UNL1        0.0000
      2 C           0.0000    0.0000    0.0000 C.2     1  UNL1        0.0000
      3 N           0.0000    0.0000    0.0000 N.am    1  UNL1        0.0000
      4 C           0.0000    0.0000    0.0000 C.3     1  UNL1        0.0000
      5 C           0.0000    0.0000    0.0000 C.3     1  UNL1        0.0000
      6 C           0.0000    0.0000    0.0000 C.3     1  UNL1        0.0000
      7 C           0.0000    0.0000    0.0000 C.3     1  UNL1        0.0000
      8 C           0.0000    0.0000    0.0000 C.ar    1  UNL1        0.0000
      9 C           0.0000    0.0000    0.0000 C.ar    1  UNL1        0.0000
     10 C           0.0000    0.0000    0.0000 C.ar    1  UNL1        0.0000
     11 N           0.0000    0.0000    0.0000 N.ar    1  UNL1        0.0000
     12 C           0.0000    0.0000    0.0000 C.ar    1  UNL1        0.0000
     13 C           0.0000    0.0000    0.0000 C.ar    1  UNL1        0.0000
     14 C           0.0000    0.0000    0.0000 C.ar    1  UNL1        0.0000
     15 C           0.0000    0.0000    0.0000 C.ar    1  UNL1        0.0000
     16 C           0.0000    0.0000    0.0000 C.ar    1  UNL1        0.0000
     17 C           0.0000    0.0000    0.0000 C.ar    1  UNL1        0.0000
     18 N           0.0000    0.0000    0.0000 N.ar    1  UNL1        0.0000
     19 C           0.0000    0.0000    0.0000 C.ar    1  UNL1        0.0000
     20 C           0.0000    0.0000    0.0000 C.ar    1  UNL1        0.0000
     21 N           0.0000    0.0000    0.0000 N.ar    1  UNL1        0.0000
     22 C           0.0000    0.0000    0.0000 C.ar    1  UNL1        0.0000
     23 C           0.0000    0.0000    0.0000 C.3     1  UNL1        0.0000
     24 C           0.0000    0.0000    0.0000 C.3     1  UNL1        0.0000
     25 C           0.0000    0.0000    0.0000 C.3     1  UNL1        0.0000
     26 C           0.0000    0.0000    0.0000 C.3     1  UNL1        0.0000
     27 C           0.0000    0.0000    0.0000 C.3     1  UNL1        0.0000
     28 C           0.0000    0.0000    0.0000 C.3     1  UNL1        0.0000
     29 C           0.0000    0.0000    0.0000 C.3     1  UNL1        0.0000
     30 C           0.0000    0.0000    0.0000 C.3     1  UNL1        0.0000
     31 C           0.0000    0.0000    0.0000 C.ar    1  UNL1        0.0000
     32 N           0.0000    0.0000    0.0000 N.ar    1  UNL1        0.0000
     33 N           0.0000    0.0000    0.0000 N.ar    1  UNL1        0.0000
     34 C           0.0000    0.0000    0.0000 C.ar    1  UNL1        0.0000
     35 C           0.0000    0.0000    0.0000 C.ar    1  UNL1        0.0000
     36 H          -1.7853   -1.1214    1.1871 H       1  UNL1        0.0000
     37 H           0.7697   -2.1525    0.9421 H       1  UNL1        0.0000
     38 H          -1.1942    1.4482    1.7332 H       1  UNL1        0.0000
     39 H          -0.3962   -1.4522   -1.9788 H       1  UNL1        0.0000
     40 H          -0.9650   -0.0506    2.1919 H       1  UNL1        0.0000
     41 H           1.7914   -1.0240    1.3300 H       1  UNL1        0.0000
     42 H          -2.3664   -0.5963   -0.2651 H       1  UNL1        0.0000
     43 H          -0.8268    0.8238   -2.1436 H       1  UNL1        0.0000
     44 H           1.9708    1.3375   -0.4443 H       1  UNL1        0.0000
     45 H           1.8158   -1.5750   -0.2239 H       1  UNL1        0.0000
     46 H          -2.0080    0.8468   -0.9551 H       1  UNL1        0.0000
     47 H           0.4354   -0.1582   -2.3716 H       1  UNL1        0.0000
     48 H           1.8944    0.0379   -1.4346 H       1  UNL1        0.0000
     49 H           0.3505    1.2001    2.0175 H       1  UNL1        0.0000
     50 H          -0.3153   -1.4934    1.9278 H       1  UNL1        0.0000
     51 H          -1.4404   -1.8041   -0.7681 H       1  UNL1        0.0000
     52 H          -0.2743    2.2930    0.7353 H       1  UNL1        0.0000
     53 H           0.2536   -2.2629   -0.6543 H       1  UNL1        0.0000
     54 H          -0.7659    2.0129   -1.0474 H       1  UNL1        0.0000
     55 H           0.2536   -2.2629   -0.6543 H       1  UNL1        0.0000
     56 H           1.8334    0.5560    1.4791 H       1  UNL1        0.0000
     57 H           1.2296   -1.3803   -1.6992 H       1  UNL1        0.0000
     58 H          -1.6427   -0.5033   -1.7483 H       1  UNL1        0.0000
     59 H           0.7031   -0.3349    2.3079 H       1  UNL1        0.0000
     60 H          -1.7054    1.8068    0.2485 H       1  UNL1        0.0000
     61 H           0.8006    1.3426   -1.7751 H       1  UNL1        0.0000
     62 H           0.8006    1.3426   -1.7751 H       1  UNL1        0.0000
     63 H           0.7010    2.4006   -0.5145 H       1  UNL1        0.0000
     64 H           2.4251   -0.1120    0.1113 H       1  UNL1        0.0000
     65 H          -0.8413   -2.2747    0.6276 H       1  UNL1        0.0000
     66 H          -2.1531    0.4269    0.9438 H       1  UNL1        0.0000
     67 H           1.2725    1.8883    0.8880 H       1  UNL1        0.0000
     68 EU          0.0000    0.0000    0.0000 Eu      1  UNL1        0.0000
@<TRIPOS>BOND
     1     1     2    2
     2     2     3   am
     3     3     4    1
     4     3     5    1
     5     5     6    1
     6     6     7    1
     7     2     8    1
     8     8     9   ar
     9     9    10   ar
    10     8    11   ar
    11    11    12   ar
    12    12    13   ar
    13    10    13   ar
    14    13    14   ar
    15    14    15   ar
    16    15    16   ar
    17    16    17   ar
    18    12    17   ar
    19    17    18   ar
    20    18    19   ar
    21    19    20    1
    22    20    21   ar
    23    21    22   ar
    24    22    23    1
    25    23    24    1
    26    23    25    1
    27    23    26    1
    28    26    27    1
    29    27    28    1
    30    28    29    1
    31    28    30    1
    32    22    31   ar
    33    28    31    1
    34    31    32   ar
    35    32    33   ar
    36    20    33   ar
    37    19    34   ar
    38    34    35   ar
    39    16    35   ar
    40     4    36    1
    41     4    37    1
    42     4    38    1
    43     5    39    1
    44     5    40    1
    45     6    41    1
    46     6    42    1
    47     7    43    1
    48     7    44    1
    49     7    45    1
    50     9    46    1
    51    10    47    1
    52    14    48    1
    53    15    49    1
    54    24    50    1
    55    24    51    1
    56    24    52    1
    57    25    53    1
    58    25    54    1
    59    25    55    1
    60    26    56    1
    61    26    57    1
    62    27    58    1
    63    27    59    1
    64    29    60    1
    65    29    61    1
    66    29    62    1
    67    30    63    1
    68    30    64    1
    69    30    65    1
    70    34    66    1
    71    35    67    1
    72    68     1    1
    73    68    33    1
    74    68    18    1
    75    68    11    1
@<TRIPOS>MOLECULE
*****
 68 75 0 0 0
SMALL
GASTEIGER

@<TRIPOS>ATOM
      1 O           0.0000    0.0000    0.0000 O.2     1  UNL1        0.0000
      2 C           0.0000    0.0000    0.0000 C.2     1  UNL1        0.0000
      3 N           0.0000    0.0000    0.0000 N.am    1  UNL1        0.0000
      4 C           0.0000    0.0000    0.0000 C.3     1  UNL1        0.0000
      5 C           0.0000    0.0000    0.0000 C.3     1  UNL1        0.0000
      6 C           0.0000    0.0000    0.0000 C.3     1  UNL1        0.0000
      7 C           0.0000    0.0000    0.0000 C.3     1  UNL1        0.0000
      8 C           0.0000    0.0000    0.0000 C.ar    1  UNL1        0.0000
      9 C           0.0000    0.0000    0.0000 C.ar    1  UNL1        0.0000
     10 C           0.0000    0.0000    0.0000 C.ar    1  UNL1        0.0000
     11 N           0.0000    0.0000    0.0000 N.ar    1  UNL1        0.0000
     12 C           0.0000    0.0000    0.0000 C.ar    1  UNL1        0.0000
     13 C           0.0000    0.0000    0.0000 C.ar    1  UNL1        0.0000
     14 C           0.0000    0.0000    0.0000 C.ar    1  UNL1        0.0000
     15 C           0.0000    0.0000    0.0000 C.ar    1  UNL1        0.0000
     16 C           0.0000    0.0000    0.0000 C.ar    1  UNL1        0.0000
     17 C           0.0000    0.0000    0.0000 C.ar    1  UNL1        0.0000
     18 N           0.0000    0.0000    0.0000 N.ar    1  UNL1        0.0000
     19 C           0.0000    0.0000    0.0000 C.ar    1  UNL1        0.0000
     20 C           0.0000    0.0000    0.0000 C.ar    1  UNL1        0.0000
     21 N           0.0000    0.0000    0.0000 N.ar    1  UNL1        0.0000
     22 C           0.0000    0.0000    0.0000 C.ar    1  UNL1        0.0000
     23 C           0.0000    0.0000    0.0000 C.3     1  UNL1        0.0000
     24 C           0.0000    0.0000    0.0000 C.3     1  UNL1        0.0000
     25 C           0.0000    0.0000    0.0000 C.3     1  UNL1        0.0000
     26 C           0.0000    0.0000    0.0000 C.3     1  UNL1        0.0000
     27 C           0.0000    0.0000    0.0000 C.3     1  UNL1        0.0000
     28 C           0.0000    0.0000    0.0000 C.3     1  UNL1        0.0000
     29 C           0.0000    0.0000    0.0000 C.3     1  UNL1        0.0000
     30 C           0.0000    0.0000    0.0000 C.3     1  UNL1        0.0000
     31 C           0.0000    0.0000    0.0000 C.ar    1  UNL1        0.0000
     32 N           0.0000    0.0000    0.0000 N.ar    1  UNL1        0.0000
     33 N           0.0000    0.0000    0.0000 N.ar    1  UNL1        0.0000
     34 C           0.0000    0.0000    0.0000 C.ar    1  UNL1        0.0000
     35 C           0.0000    0.0000    0.0000 C.ar    1  UNL1        0.0000
     36 H          -1.7856   -1.1180    1.1927 H       1  UNL1        0.0000
     37 H           0.7683   -2.1508    0.9416 H       1  UNL1        0.0000
     38 H          -1.1954    1.4549    1.7288 H       1  UNL1        0.0000
     39 H          -0.3972   -1.4492   -1.9795 H       1  UNL1        0.0000
     40 H          -0.9661   -0.0418    2.1898 H       1  UNL1        0.0000
     41 H           1.7932   -1.0277    1.3333 H       1  UNL1        0.0000
     42 H          -2.3564   -0.6070   -0.2604 H       1  UNL1        0.0000
     43 H          -0.8275    0.8198   -2.1443 H       1  UNL1        0.0000
     44 H           1.9610    1.3476   -0.4485 H       1  UNL1        0.0000
     45 H           1.8169   -1.5711   -0.2217 H       1  UNL1        0.0000
     46 H          -2.0103    0.8407   -0.9538 H       1  UNL1        0.0000
     47 H           0.4387   -0.1594   -2.3716 H       1  UNL1        0.0000
     48 H           1.8915    0.0391   -1.4291 H       1  UNL1        0.0000
     49 H           0.3477    1.2052    2.0133 H       1  UNL1        0.0000
     50 H          -0.3134   -1.4855    1.9329 H       1  UNL1        0.0000
     51 H          -1.4402   -1.8104   -0.7701 H       1  UNL1        0.0000
     52 H          -0.2724    2.2911    0.7359 H       1  UNL1        0.0000
     53 H           0.2527   -2.2627   -0.6537 H       1  UNL1        0.0000
     54 H          -0.7639    2.0124   -1.0561 H       1  UNL1        0.0000
     55 H           0.2527   -2.2627   -0.6537 H       1  UNL1        0.0000
     56 H           1.8416    0.5670    1.4826 H       1  UNL1        0.0000
     57 H           1.2310   -1.3785   -1.6980 H       1  UNL1        0.0000
     58 H          -1.6484   -0.5089   -1.7469 H       1  UNL1        0.0000
     59 H           0.6897   -0.3283    2.3142 H       1  UNL1        0.0000
     60 H          -1.7165    1.8180    0.2413 H       1  UNL1        0.0000
     61 H           0.7973    1.3413   -1.7786 H       1  UNL1        0.0000
     62 H           0.7973    1.3413   -1.7786 H       1  UNL1        0.0000
     63 H           0.6997    2.3959   -0.5166 H       1  UNL1        0.0000
     64 H           2.4150   -0.1021    0.1049 H       1  UNL1        0.0000
     65 H          -0.8419   -2.2698    0.6311 H       1  UNL1        0.0000
     66 H          -2.1462    0.4296    0.9367 H       1  UNL1        0.0000
     67 H           1.2752    1.8997    0.8918 H       1  UNL1        0.0000
     68 EU          0.0000    0.0000    0.0000 Eu      1  UNL1        0.0000
@<TRIPOS>BOND
     1     1     2    2
     2     2     3   am
     3     3     4    1
     4     3     5    1
     5     5     6    1
     6     6     7    1
     7     2     8    1
     8     8     9   ar
     9     9    10   ar
    10     8    11   ar
    11    11    12   ar
    12    12    13   ar
    13    10    13   ar
    14    13    14   ar
    15    14    15   ar
    16    15    16   ar
    17    16    17   ar
    18    12    17   ar
    19    17    18   ar
    20    18    19   ar
    21    19    20    1
    22    20    21   ar
    23    21    22   ar
    24    22    23    1
    25    23    24    1
    26    23    25    1
    27    23    26    1
    28    26    27    1
    29    27    28    1
    30    28    29    1
    31    28    30    1
    32    22    31   ar
    33    28    31    1
    34    31    32   ar
    35    32    33   ar
    36    20    33   ar
    37    19    34   ar
    38    34    35   ar
    39    16    35   ar
    40     4    36    1
    41     4    37    1
    42     4    38    1
    43     5    39    1
    44     5    40    1
    45     6    41    1
    46     6    42    1
    47     7    43    1
    48     7    44    1
    49     7    45    1
    50     9    46    1
    51    10    47    1
    52    14    48    1
    53    15    49    1
    54    24    50    1
    55    24    51    1
    56    24    52    1
    57    25    53    1
    58    25    54    1
    59    25    55    1
    60    26    56    1
    61    26    57    1
    62    27    58    1
    63    27    59    1
    64    29    60    1
    65    29    61    1
    66    29    62    1
    67    30    63    1
    68    30    64    1
    69    30    65    1
    70    34    66    1
    71    35    67    1
    72    68     1    1
    73    68    33    1
    74    68    18    1
    75    68    11    1
@<TRIPOS>MOLECULE
*****
 68 75 0 0 0
SMALL
GASTEIGER

@<TRIPOS>ATOM
      1 O           0.0000    0.0000    0.0000 O.2     1  UNL1        0.0000
      2 C           0.0000    0.0000    0.0000 C.2     1  UNL1        0.0000
      3 N           0.0000    0.0000    0.0000 N.am    1  UNL1        0.0000
      4 C           0.0000    0.0000    0.0000 C.3     1  UNL1        0.0000
      5 C           0.0000    0.0000    0.0000 C.3     1  UNL1        0.0000
      6 C           0.0000    0.0000    0.0000 C.3     1  UNL1        0.0000
      7 C           0.0000    0.0000    0.0000 C.3     1  UNL1        0.0000
      8 C           0.0000    0.0000    0.0000 C.ar    1  UNL1        0.0000
      9 C           0.0000    0.0000    0.0000 C.ar    1  UNL1        0.0000
     10 C           0.0000    0.0000    0.0000 C.ar    1  UNL1        0.0000
     11 N           0.0000    0.0000    0.0000 N.ar    1  UNL1        0.0000
     12 C           0.0000    0.0000    0.0000 C.ar    1  UNL1        0.0000
     13 C           0.0000    0.0000    0.0000 C.ar    1  UNL1        0.0000
     14 C           0.0000    0.0000    0.0000 C.ar    1  UNL1        0.0000
     15 C           0.0000    0.0000    0.0000 C.ar    1  UNL1        0.0000
     16 C           0.0000    0.0000    0.0000 C.ar    1  UNL1        0.0000
     17 C           0.0000    0.0000    0.0000 C.ar    1  UNL1        0.0000
     18 N           0.0000    0.0000    0.0000 N.ar    1  UNL1        0.0000
     19 C           0.0000    0.0000    0.0000 C.ar    1  UNL1        0.0000
     20 C           0.0000    0.0000    0.0000 C.ar    1  UNL1        0.0000
     21 N           0.0000    0.0000    0.0000 N.ar    1  UNL1        0.0000
     22 C           0.0000    0.0000    0.0000 C.ar    1  UNL1        0.0000
     23 C           0.0000    0.0000    0.0000 C.3     1  UNL1        0.0000
     24 C           0.0000    0.0000    0.0000 C.3     1  UNL1        0.0000
     25 C           0.0000    0.0000    0.0000 C.3     1  UNL1        0.0000
     26 C           0.0000    0.0000    0.0000 C.3     1  UNL1        0.0000
     27 C           0.0000    0.0000    0.0000 C.3     1  UNL1        0.0000
     28 C           0.0000    0.0000    0.0000 C.3     1  UNL1        0.0000
     29 C           0.0000    0.0000    0.0000 C.3     1  UNL1        0.0000
     30 C           0.0000    0.0000    0.0000 C.3     1  UNL1        0.0000
     31 C           0.0000    0.0000    0.0000 C.ar    1  UNL1        0.0000
     32 N           0.0000    0.0000    0.0000 N.ar    1  UNL1        0.0000
     33 N           0.0000    0.0000    0.0000 N.ar    1  UNL1        0.0000
     34 C           0.0000    0.0000    0.0000 C.ar    1  UNL1        0.0000
     35 C           0.0000    0.0000    0.0000 C.ar    1  UNL1        0.0000
     36 H          -1.7863   -1.1213    1.1877 H       1  UNL1        0.0000
     37 H           0.7668   -2.1552    0.9380 H       1  UNL1        0.0000
     38 H          -1.2003    1.4467    1.7307 H       1  UNL1        0.0000
     39 H          -0.3962   -1.4364   -1.9787 H       1  UNL1        0.0000
     40 H          -0.9698   -0.0531    2.1903 H       1  UNL1        0.0000
     41 H           1.7853   -1.0279    1.3352 H       1  UNL1        0.0000
     42 H          -2.3544   -0.6067   -0.2632 H       1  UNL1        0.0000
     43 H          -0.8250    0.8208   -2.1416 H       1  UNL1        0.0000
     44 H           1.9723    1.3370   -0.4374 H       1  UNL1        0.0000
     45 H           1.8161   -1.5723   -0.2234 H       1  UNL1        0.0000
     46 H          -2.0165    0.8424   -0.9545 H       1  UNL1        0.0000
     47 H           0.4464   -0.1532   -2.3732 H       1  UNL1        0.0000
     48 H           1.8982    0.0376   -1.4267 H       1  UNL1        0.0000
     49 H           0.3459    1.1991    2.0193 H       1  UNL1        0.0000
     50 H          -0.3148   -1.4962    1.9246 H       1  UNL1        0.0000
     51 H          -1.4382   -1.8093   -0.7785 H       1  UNL1        0.0000
     52 H          -0.2704    2.2857    0.7426 H       1  UNL1        0.0000
     53 H           0.2545   -2.2618   -0.6606 H       1  UNL1        0.0000
     54 H          -0.7568    2.0078   -1.0347 H       1  UNL1        0.0000
     55 H           0.2545   -2.2618   -0.6606 H       1  UNL1        0.0000
     56 H           1.8382    0.5610    1.4964 H       1  UNL1        0.0000
     57 H           1.2324   -1.3786   -1.7016 H       1  UNL1        0.0000
     58 H          -1.6513   -0.4974   -1.7477 H       1  UNL1        0.0000
     59 H           0.6943   -0.3344    2.3107 H       1  UNL1        0.0000
     60 H          -1.7238    1.8206    0.2448 H       1  UNL1        0.0000
     61 H           0.8043    1.3465   -1.7714 H       1  UNL1        0.0000
     62 H           0.8043    1.3465   -1.7714 H       1  UNL1        0.0000
     63 H           0.6997    2.3988   -0.5076 H       1  UNL1        0.0000
     64 H           2.4257   -0.1107    0.1212 H       1  UNL1        0.0000
     65 H          -0.8434   -2.2727    0.6223 H       1  UNL1        0.0000
     66 H          -2.1462    0.4258    0.9352 H       1  UNL1        0.0000
     67 H           1.2755    1.8904    0.8965 H       1  UNL1        0.0000
     68 EU          0.0000    0.0000    0.0000 Eu      1  UNL1        0.0000
@<TRIPOS>BOND
     1     1     2    2
     2     2     3   am
     3     3     4    1
     4     3     5    1
     5     5     6    1
     6     6     7    1
     7     2     8    1
     8     8     9   ar
     9     9    10   ar
    10     8    11   ar
    11    11    12   ar
    12    12    13   ar
    13    10    13   ar
    14    13    14   ar
    15    14    15   ar
    16    15    16   ar
    17    16    17   ar
    18    12    17   ar
    19    17    18   ar
    20    18    19   ar
    21    19    20    1
    22    20    21   ar
    23    21    22   ar
    24    22    23    1
    25    23    24    1
    26    23    25    1
    27    23    26    1
    28    26    27    1
    29    27    28    1
    30    28    29    1
    31    28    30    1
    32    22    31   ar
    33    28    31    1
    34    31    32   ar
    35    32    33   ar
    36    20    33   ar
    37    19    34   ar
    38    34    35   ar
    39    16    35   ar
    40     4    36    1
    41     4    37    1
    42     4    38    1
    43     5    39    1
    44     5    40    1
    45     6    41    1
    46     6    42    1
    47     7    43    1
    48     7    44    1
    49     7    45    1
    50     9    46    1
    51    10    47    1
    52    14    48    1
    53    15    49    1
    54    24    50    1
    55    24    51    1
    56    24    52    1
    57    25    53    1
    58    25    54    1
    59    25    55    1
    60    26    56    1
    61    26    57    1
    62    27    58    1
    63    27    59    1
    64    29    60    1
    65    29    61    1
    66    29    62    1
    67    30    63    1
    68    30    64    1
    69    30    65    1
    70    34    66    1
    71    35    67    1
    72    68     1    1
    73    68    33    1
    74    68    18    1
    75    68    11    1
@<TRIPOS>MOLECULE
*****
 68 75 0 0 0
SMALL
GASTEIGER

@<TRIPOS>ATOM
      1 O           0.0000    0.0000    0.0000 O.2     1  UNL1        0.0000
      2 C           0.0000    0.0000    0.0000 C.2     1  UNL1        0.0000
      3 N           0.0000    0.0000    0.0000 N.am    1  UNL1        0.0000
      4 C           0.0000    0.0000    0.0000 C.3     1  UNL1        0.0000
      5 C           0.0000    0.0000    0.0000 C.3     1  UNL1        0.0000
      6 C           0.0000    0.0000    0.0000 C.3     1  UNL1        0.0000
      7 C           0.0000    0.0000    0.0000 C.3     1  UNL1        0.0000
      8 C           0.0000    0.0000    0.0000 C.ar    1  UNL1        0.0000
      9 C           0.0000    0.0000    0.0000 C.ar    1  UNL1        0.0000
     10 C           0.0000    0.0000    0.0000 C.ar    1  UNL1        0.0000
     11 N           0.0000    0.0000    0.0000 N.ar    1  UNL1        0.0000
     12 C           0.0000    0.0000    0.0000 C.ar    1  UNL1        0.0000
     13 C           0.0000    0.0000    0.0000 C.ar    1  UNL1        0.0000
     14 C           0.0000    0.0000    0.0000 C.ar    1  UNL1        0.0000
     15 C           0.0000    0.0000    0.0000 C.ar    1  UNL1        0.0000
     16 C           0.0000    0.0000    0.0000 C.ar    1  UNL1        0.0000
     17 C           0.0000    0.0000    0.0000 C.ar    1  UNL1        0.0000
     18 N           0.0000    0.0000    0.0000 N.ar    1  UNL1        0.0000
     19 C           0.0000    0.0000    0.0000 C.ar    1  UNL1        0.0000
     20 C           0.0000    0.0000    0.0000 C.ar    1  UNL1        0.0000
     21 N           0.0000    0.0000    0.0000 N.ar    1  UNL1        0.0000
     22 C           0.0000    0.0000    0.0000 C.ar    1  UNL1        0.0000
     23 C           0.0000    0.0000    0.0000 C.3     1  UNL1        0.0000
     24 C           0.0000    0.0000    0.0000 C.3     1  UNL1        0.0000
     25 C           0.0000    0.0000    0.0000 C.3     1  UNL1        0.0000
     26 C           0.0000    0.0000    0.0000 C.3     1  UNL1        0.0000
     27 C           0.0000    0.0000    0.0000 C.3     1  UNL1        0.0000
     28 C           0.0000    0.0000    0.0000 C.3     1  UNL1        0.0000
     29 C           0.0000    0.0000    0.0000 C.3     1  UNL1        0.0000
     30 C           0.0000    0.0000    0.0000 C.3     1  UNL1        0.0000
     31 C           0.0000    0.0000    0.0000 C.ar    1  UNL1        0.0000
     32 N           0.0000    0.0000    0.0000 N.ar    1  UNL1        0.0000
     33 N           0.0000    0.0000    0.0000 N.ar    1  UNL1        0.0000
     34 C           0.0000    0.0000    0.0000 C.ar    1  UNL1        0.0000
     35 C           0.0000    0.0000    0.0000 C.ar    1  UNL1        0.0000
     36 H          -1.7903   -1.1349    1.1699 H       1  UNL1        0.0000
     37 H           0.7699   -2.1582    0.9219 H       1  UNL1        0.0000
     38 H          -1.1967    1.4403    1.7347 H       1  UNL1        0.0000
     39 H          -0.3902   -1.4295   -1.9890 H       1  UNL1        0.0000
     40 H          -0.9884   -0.0621    2.2008 H       1  UNL1        0.0000
     41 H           1.7854   -1.0341    1.3301 H       1  UNL1        0.0000
     42 H          -2.3612   -0.5965   -0.2744 H       1  UNL1        0.0000
     43 H          -0.8222    0.8396   -2.1418 H       1  UNL1        0.0000
     44 H           1.9767    1.3369   -0.4243 H       1  UNL1        0.0000
     45 H           1.8158   -1.5698   -0.2374 H       1  UNL1        0.0000
     46 H          -2.0016    0.8524   -0.9613 H       1  UNL1        0.0000
     47 H           0.4361   -0.1365   -2.3676 H       1  UNL1        0.0000
     48 H           1.9054    0.0418   -1.4269 H       1  UNL1        0.0000
     49 H           0.3428    1.1869    2.0273 H       1  UNL1        0.0000
     50 H          -0.3209   -1.5073    1.9112 H       1  UNL1        0.0000
     51 H          -1.4415   -1.7977   -0.7871 H       1  UNL1        0.0000
     52 H          -0.2788    2.2869    0.7409 H       1  UNL1        0.0000
     53 H           0.2508   -2.2559   -0.6775 H       1  UNL1        0.0000
     54 H          -0.7588    2.0207   -1.0377 H       1  UNL1        0.0000
     55 H           0.2508   -2.2559   -0.6775 H       1  UNL1        0.0000
     56 H           1.8367    0.5531    1.4978 H       1  UNL1        0.0000
     57 H           1.2460   -1.3804   -1.7201 H       1  UNL1        0.0000
     58 H          -1.6426   -0.4901   -1.7594 H       1  UNL1        0.0000
     59 H           0.6902   -0.3485    2.3082 H       1  UNL1        0.0000
     60 H          -1.7278    1.8178    0.2487 H       1  UNL1        0.0000
     61 H           0.8099    1.3535   -1.7633 H       1  UNL1        0.0000
     62 H           0.8099    1.3535   -1.7633 H       1  UNL1        0.0000
     63 H           0.7093    2.4039   -0.4998 H       1  UNL1        0.0000
     64 H           2.4265   -0.1161    0.1239 H       1  UNL1        0.0000
     65 H          -0.8403   -2.2813    0.6045 H       1  UNL1        0.0000
     66 H          -2.1459    0.4185    0.9384 H       1  UNL1        0.0000
     67 H           1.2669    1.8861    0.9093 H       1  UNL1        0.0000
     68 EU          0.0000    0.0000    0.0000 Eu      1  UNL1        0.0000
@<TRIPOS>BOND
     1     1     2    2
     2     2     3   am
     3     3     4    1
     4     3     5    1
     5     5     6    1
     6     6     7    1
     7     2     8    1
     8     8     9   ar
     9     9    10   ar
    10     8    11   ar
    11    11    12   ar
    12    12    13   ar
    13    10    13   ar
    14    13    14   ar
    15    14    15   ar
    16    15    16   ar
    17    16    17   ar
    18    12    17   ar
    19    17    18   ar
    20    18    19   ar
    21    19    20    1
    22    20    21   ar
    23    21    22   ar
    24    22    23    1
    25    23    24    1
    26    23    25    1
    27    23    26    1
    28    26    27    1
    29    27    28    1
    30    28    29    1
    31    28    30    1
    32    22    31   ar
    33    28    31    1
    34    31    32   ar
    35    32    33   ar
    36    20    33   ar
    37    19    34   ar
    38    34    35   ar
    39    16    35   ar
    40     4    36    1
    41     4    37    1
    42     4    38    1
    43     5    39    1
    44     5    40    1
    45     6    41    1
    46     6    42    1
    47     7    43    1
    48     7    44    1
    49     7    45    1
    50     9    46    1
    51    10    47    1
    52    14    48    1
    53    15    49    1
    54    24    50    1
    55    24    51    1
    56    24    52    1
    57    25    53    1
    58    25    54    1
    59    25    55    1
    60    26    56    1
    61    26    57    1
    62    27    58    1
    63    27    59    1
    64    29    60    1
    65    29    61    1
    66    29    62    1
    67    30    63    1
    68    30    64    1
    69    30    65    1
    70    34    66    1
    71    35    67    1
    72    68     1    1
    73    68    33    1
    74    68    18    1
    75    68    11    1
@<TRIPOS>MOLECULE
*****
 68 75 0 0 0
SMALL
GASTEIGER

@<TRIPOS>ATOM
      1 O           0.0000    0.0000    0.0000 O.2     1  UNL1        0.0000
      2 C           0.0000    0.0000    0.0000 C.2     1  UNL1        0.0000
      3 N           0.0000    0.0000    0.0000 N.am    1  UNL1        0.0000
      4 C           0.0000    0.0000    0.0000 C.3     1  UNL1        0.0000
      5 C           0.0000    0.0000    0.0000 C.3     1  UNL1        0.0000
      6 C           0.0000    0.0000    0.0000 C.3     1  UNL1        0.0000
      7 C           0.0000    0.0000    0.0000 C.3     1  UNL1        0.0000
      8 C           0.0000    0.0000    0.0000 C.ar    1  UNL1        0.0000
      9 C           0.0000    0.0000    0.0000 C.ar    1  UNL1        0.0000
     10 C           0.0000    0.0000    0.0000 C.ar    1  UNL1        0.0000
     11 N           0.0000    0.0000    0.0000 N.ar    1  UNL1        0.0000
     12 C           0.0000    0.0000    0.0000 C.ar    1  UNL1        0.0000
     13 C           0.0000    0.0000    0.0000 C.ar    1  UNL1        0.0000
     14 C           0.0000    0.0000    0.0000 C.ar    1  UNL1        0.0000
     15 C           0.0000    0.0000    0.0000 C.ar    1  UNL1        0.0000
     16 C           0.0000    0.0000    0.0000 C.ar    1  UNL1        0.0000
     17 C           0.0000    0.0000    0.0000 C.ar    1  UNL1        0.0000
     18 N           0.0000    0.0000    0.0000 N.ar    1  UNL1        0.0000
     19 C           0.0000    0.0000    0.0000 C.ar    1  UNL1        0.0000
     20 C           0.0000    0.0000    0.0000 C.ar    1  UNL1        0.0000
     21 N           0.0000    0.0000    0.0000 N.ar    1  UNL1        0.0000
     22 C           0.0000    0.0000    0.0000 C.ar    1  UNL1        0.0000
     23 C           0.0000    0.0000    0.0000 C.3     1  UNL1        0.0000
     24 C           0.0000    0.0000    0.0000 C.3     1  UNL1        0.0000
     25 C           0.0000    0.0000    0.0000 C.3     1  UNL1        0.0000
     26 C           0.0000    0.0000    0.0000 C.3     1  UNL1        0.0000
     27 C           0.0000    0.0000    0.0000 C.3     1  UNL1        0.0000
     28 C           0.0000    0.0000    0.0000 C.3     1  UNL1        0.0000
     29 C           0.0000    0.0000    0.0000 C.3     1  UNL1        0.0000
     30 C           0.0000    0.0000    0.0000 C.3     1  UNL1        0.0000
     31 C           0.0000    0.0000    0.0000 C.ar    1  UNL1        0.0000
     32 N           0.0000    0.0000    0.0000 N.ar    1  UNL1        0.0000
     33 N           0.0000    0.0000    0.0000 N.ar    1  UNL1        0.0000
     34 C           0.0000    0.0000    0.0000 C.ar    1  UNL1        0.0000
     35 C           0.0000    0.0000    0.0000 C.ar    1  UNL1        0.0000
     36 H          -1.7887   -1.1285    1.1814 H       1  UNL1        0.0000
     37 H           0.7678   -2.1641    0.9234 H       1  UNL1        0.0000
     38 H          -1.2000    1.4434    1.7394 H       1  UNL1        0.0000
     39 H          -0.3894   -1.4365   -1.9965 H       1  UNL1        0.0000
     40 H          -0.9730   -0.0588    2.1860 H       1  UNL1        0.0000
     41 H           1.7780   -1.0349    1.3341 H       1  UNL1        0.0000
     42 H          -2.3622   -0.5907   -0.2797 H       1  UNL1        0.0000
     43 H          -0.8233    0.8301   -2.1428 H       1  UNL1        0.0000
     44 H           1.9742    1.3393   -0.4365 H       1  UNL1        0.0000
     45 H           1.8179   -1.5683   -0.2301 H       1  UNL1        0.0000
     46 H          -2.0049    0.8540   -0.9520 H       1  UNL1        0.0000
     47 H           0.4471   -0.1431   -2.3721 H       1  UNL1        0.0000
     48 H           1.9008    0.0411   -1.4235 H       1  UNL1        0.0000
     49 H           0.3448    1.1975    2.0188 H       1  UNL1        0.0000
     50 H          -0.3145   -1.5021    1.9127 H       1  UNL1        0.0000
     51 H          -1.4344   -1.8038   -0.7940 H       1  UNL1        0.0000
     52 H          -0.2729    2.2753    0.7448 H       1  UNL1        0.0000
     53 H           0.2544   -2.2576   -0.6732 H       1  UNL1        0.0000
     54 H          -0.7605    2.0107   -1.0442 H       1  UNL1        0.0000
     55 H           0.2544   -2.2576   -0.6732 H       1  UNL1        0.0000
     56 H           1.8313    0.5569    1.4995 H       1  UNL1        0.0000
     57 H           1.2344   -1.3725   -1.7079 H       1  UNL1        0.0000
     58 H          -1.6440   -0.4961   -1.7533 H       1  UNL1        0.0000
     59 H           0.6896   -0.3390    2.3110 H       1  UNL1        0.0000
     60 H          -1.7213    1.8174    0.2556 H       1  UNL1        0.0000
     61 H           0.8040    1.3517   -1.7654 H       1  UNL1        0.0000
     62 H           0.8040    1.3517   -1.7654 H       1  UNL1        0.0000
     63 H           0.7049    2.4077   -0.5054 H       1  UNL1        0.0000
     64 H           2.4236   -0.1076    0.1268 H       1  UNL1        0.0000
     65 H          -0.8476   -2.2743    0.6051 H       1  UNL1        0.0000
     66 H          -2.1487    0.4207    0.9338 H       1  UNL1        0.0000
     67 H           1.2815    1.8897    0.8989 H       1  UNL1        0.0000
     68 EU          0.0000    0.0000    0.0000 Eu      1  UNL1        0.0000
@<TRIPOS>BOND
     1     1     2    2
     2     2     3   am
     3     3     4    1
     4     3     5    1
     5     5     6    1
     6     6     7    1
     7     2     8    1
     8     8     9   ar
     9     9    10   ar
    10     8    11   ar
    11    11    12   ar
    12    12    13   ar
    13    10    13   ar
    14    13    14   ar
    15    14    15   ar
    16    15    16   ar
    17    16    17   ar
    18    12    17   ar
    19    17    18   ar
    20    18    19   ar
    21    19    20    1
    22    20    21   ar
    23    21    22   ar
    24    22    23    1
    25    23    24    1
    26    23    25    1
    27    23    26    1
    28    26    27    1
    29    27    28    1
    30    28    29    1
    31    28    30    1
    32    22    31   ar
    33    28    31    1
    34    31    32   ar
    35    32    33   ar
    36    20    33   ar
    37    19    34   ar
    38    34    35   ar
    39    16    35   ar
    40     4    36    1
    41     4    37    1
    42     4    38    1
    43     5    39    1
    44     5    40    1
    45     6    41    1
    46     6    42    1
    47     7    43    1
    48     7    44    1
    49     7    45    1
    50     9    46    1
    51    10    47    1
    52    14    48    1
    53    15    49    1
    54    24    50    1
    55    24    51    1
    56    24    52    1
    57    25    53    1
    58    25    54    1
    59    25    55    1
    60    26    56    1
    61    26    57    1
    62    27    58    1
    63    27    59    1
    64    29    60    1
    65    29    61    1
    66    29    62    1
    67    30    63    1
    68    30    64    1
    69    30    65    1
    70    34    66    1
    71    35    67    1
    72    68     1    1
    73    68    33    1
    74    68    18    1
    75    68    11    1
@<TRIPOS>MOLECULE
*****
 68 75 0 0 0
SMALL
GASTEIGER

@<TRIPOS>ATOM
      1 O           0.0000    0.0000    0.0000 O.2     1  UNL1        0.0000
      2 C           0.0000    0.0000    0.0000 C.2     1  UNL1        0.0000
      3 N           0.0000    0.0000    0.0000 N.am    1  UNL1        0.0000
      4 C           0.0000    0.0000    0.0000 C.3     1  UNL1        0.0000
      5 C           0.0000    0.0000    0.0000 C.3     1  UNL1        0.0000
      6 C           0.0000    0.0000    0.0000 C.3     1  UNL1        0.0000
      7 C           0.0000    0.0000    0.0000 C.3     1  UNL1        0.0000
      8 C           0.0000    0.0000    0.0000 C.ar    1  UNL1        0.0000
      9 C           0.0000    0.0000    0.0000 C.ar    1  UNL1        0.0000
     10 C           0.0000    0.0000    0.0000 C.ar    1  UNL1        0.0000
     11 N           0.0000    0.0000    0.0000 N.ar    1  UNL1        0.0000
     12 C           0.0000    0.0000    0.0000 C.ar    1  UNL1        0.0000
     13 C           0.0000    0.0000    0.0000 C.ar    1  UNL1        0.0000
     14 C           0.0000    0.0000    0.0000 C.ar    1  UNL1        0.0000
     15 C           0.0000    0.0000    0.0000 C.ar    1  UNL1        0.0000
     16 C           0.0000    0.0000    0.0000 C.ar    1  UNL1        0.0000
     17 C           0.0000    0.0000    0.0000 C.ar    1  UNL1        0.0000
     18 N           0.0000    0.0000    0.0000 N.ar    1  UNL1        0.0000
     19 C           0.0000    0.0000    0.0000 C.ar    1  UNL1        0.0000
     20 C           0.0000    0.0000    0.0000 C.ar    1  UNL1        0.0000
     21 N           0.0000    0.0000    0.0000 N.ar    1  UNL1        0.0000
     22 C           0.0000    0.0000    0.0000 C.ar    1  UNL1        0.0000
     23 C           0.0000    0.0000    0.0000 C.3     1  UNL1        0.0000
     24 C           0.0000    0.0000    0.0000 C.3     1  UNL1        0.0000
     25 C           0.0000    0.0000    0.0000 C.3     1  UNL1        0.0000
     26 C           0.0000    0.0000    0.0000 C.3     1  UNL1        0.0000
     27 C           0.0000    0.0000    0.0000 C.3     1  UNL1        0.0000
     28 C           0.0000    0.0000    0.0000 C.3     1  UNL1        0.0000
     29 C           0.0000    0.0000    0.0000 C.3     1  UNL1        0.0000
     30 C           0.0000    0.0000    0.0000 C.3     1  UNL1        0.0000
     31 C           0.0000    0.0000    0.0000 C.ar    1  UNL1        0.0000
     32 N           0.0000    0.0000    0.0000 N.ar    1  UNL1        0.0000
     33 N           0.0000    0.0000    0.0000 N.ar    1  UNL1        0.0000
     34 C           0.0000    0.0000    0.0000 C.ar    1  UNL1        0.0000
     35 C           0.0000    0.0000    0.0000 C.ar    1  UNL1        0.0000
     36 H          -1.7952   -1.1200    1.1755 H       1  UNL1        0.0000
     37 H           0.7566   -2.1623    0.9280 H       1  UNL1        0.0000
     38 H          -1.2103    1.4428    1.7359 H       1  UNL1        0.0000
     39 H          -0.3828   -1.4288   -1.9963 H       1  UNL1        0.0000
     40 H          -0.9907   -0.0563    2.1792 H       1  UNL1        0.0000
     41 H           1.7792   -1.0396    1.3367 H       1  UNL1        0.0000
     42 H          -2.3547   -0.6047   -0.2807 H       1  UNL1        0.0000
     43 H          -0.8120    0.8333   -2.1441 H       1  UNL1        0.0000
     44 H           1.9745    1.3382   -0.4200 H       1  UNL1        0.0000
     45 H           1.8128   -1.5761   -0.2261 H       1  UNL1        0.0000
     46 H          -2.0050    0.8513   -0.9547 H       1  UNL1        0.0000
     47 H           0.4608   -0.1357   -2.3705 H       1  UNL1        0.0000
     48 H           1.9038    0.0466   -1.4189 H       1  UNL1        0.0000
     49 H           0.3282    1.1907    2.0299 H       1  UNL1        0.0000
     50 H          -0.3328   -1.5073    1.9194 H       1  UNL1        0.0000
     51 H          -1.4343   -1.8031   -0.7991 H       1  UNL1        0.0000
     52 H          -0.2685    2.2875    0.7524 H       1  UNL1        0.0000
     53 H           0.2526   -2.2575   -0.6731 H       1  UNL1        0.0000
     54 H          -0.7529    2.0195   -1.0474 H       1  UNL1        0.0000
     55 H           0.2526   -2.2575   -0.6731 H       1  UNL1        0.0000
     56 H           1.8246    0.5488    1.5072 H       1  UNL1        0.0000
     57 H           1.2389   -1.3717   -1.7035 H       1  UNL1        0.0000
     58 H          -1.6367   -0.4904   -1.7615 H       1  UNL1        0.0000
     59 H           0.6757   -0.3449    2.3078 H       1  UNL1        0.0000
     60 H          -1.7173    1.8245    0.2452 H       1  UNL1        0.0000
     61 H           0.8121    1.3570   -1.7580 H       1  UNL1        0.0000
     62 H           0.8121    1.3570   -1.7580 H       1  UNL1        0.0000
     63 H           0.7079    2.4064   -0.4920 H       1  UNL1        0.0000
     64 H           2.4215   -0.1152    0.1292 H       1  UNL1        0.0000
     65 H          -0.8507   -2.2675    0.6056 H       1  UNL1        0.0000
     66 H          -2.1523    0.4280    0.9192 H       1  UNL1        0.0000
     67 H           1.2705    1.8837    0.9131 H       1  UNL1        0.0000
     68 EU          0.0000    0.0000    0.0000 Eu      1  UNL1        0.0000
@<TRIPOS>BOND
     1     1     2    2
     2     2     3   am
     3     3     4    1
     4     3     5    1
     5     5     6    1
     6     6     7    1
     7     2     8    1
     8     8     9   ar
     9     9    10   ar
    10     8    11   ar
    11    11    12   ar
    12    12    13   ar
    13    10    13   ar
    14    13    14   ar
    15    14    15   ar
    16    15    16   ar
    17    16    17   ar
    18    12    17   ar
    19    17    18   ar
    20    18    19   ar
    21    19    20    1
    22    20    21   ar
    23    21    22   ar
    24    22    23    1
    25    23    24    1
    26    23    25    1
    27    23    26    1
    28    26    27    1
    29    27    28    1
    30    28    29    1
    31    28    30    1
    32    22    31   ar
    33    28    31    1
    34    31    32   ar
    35    32    33   ar
    36    20    33   ar
    37    19    34   ar
    38    34    35   ar
    39    16    35   ar
    40     4    36    1
    41     4    37    1
    42     4    38    1
    43     5    39    1
    44     5    40    1
    45     6    41    1
    46     6    42    1
    47     7    43    1
    48     7    44    1
    49     7    45    1
    50     9    46    1
    51    10    47    1
    52    14    48    1
    53    15    49    1
    54    24    50    1
    55    24    51    1
    56    24    52    1
    57    25    53    1
    58    25    54    1
    59    25    55    1
    60    26    56    1
    61    26    57    1
    62    27    58    1
    63    27    59    1
    64    29    60    1
    65    29    61    1
    66    29    62    1
    67    30    63    1
    68    30    64    1
    69    30    65    1
    70    34    66    1
    71    35    67    1
    72    68     1    1
    73    68    33    1
    74    68    18    1
    75    68    11    1
@<TRIPOS>MOLECULE
*****
 68 75 0 0 0
SMALL
GASTEIGER

@<TRIPOS>ATOM
      1 O           0.0000    0.0000    0.0000 O.2     1  UNL1        0.0000
      2 C           0.0000    0.0000    0.0000 C.2     1  UNL1        0.0000
      3 N           0.0000    0.0000    0.0000 N.am    1  UNL1        0.0000
      4 C           0.0000    0.0000    0.0000 C.3     1  UNL1        0.0000
      5 C           0.0000    0.0000    0.0000 C.3     1  UNL1        0.0000
      6 C           0.0000    0.0000    0.0000 C.3     1  UNL1        0.0000
      7 C           0.0000    0.0000    0.0000 C.3     1  UNL1        0.0000
      8 C           0.0000    0.0000    0.0000 C.ar    1  UNL1        0.0000
      9 C           0.0000    0.0000    0.0000 C.ar    1  UNL1        0.0000
     10 C           0.0000    0.0000    0.0000 C.ar    1  UNL1        0.0000
     11 N           0.0000    0.0000    0.0000 N.ar    1  UNL1        0.0000
     12 C           0.0000    0.0000    0.0000 C.ar    1  UNL1        0.0000
     13 C           0.0000    0.0000    0.0000 C.ar    1  UNL1        0.0000
     14 C           0.0000    0.0000    0.0000 C.ar    1  UNL1        0.0000
     15 C           0.0000    0.0000    0.0000 C.ar    1  UNL1        0.0000
     16 C           0.0000    0.0000    0.0000 C.ar    1  UNL1        0.0000
     17 C           0.0000    0.0000    0.0000 C.ar    1  UNL1        0.0000
     18 N           0.0000    0.0000    0.0000 N.ar    1  UNL1        0.0000
     19 C           0.0000    0.0000    0.0000 C.ar    1  UNL1        0.0000
     20 C           0.0000    0.0000    0.0000 C.ar    1  UNL1        0.0000
     21 N           0.0000    0.0000    0.0000 N.ar    1  UNL1        0.0000
     22 C           0.0000    0.0000    0.0000 C.ar    1  UNL1        0.0000
     23 C           0.0000    0.0000    0.0000 C.3     1  UNL1        0.0000
     24 C           0.0000    0.0000    0.0000 C.3     1  UNL1        0.0000
     25 C           0.0000    0.0000    0.0000 C.3     1  UNL1        0.0000
     26 C           0.0000    0.0000    0.0000 C.3     1  UNL1        0.0000
     27 C           0.0000    0.0000    0.0000 C.3     1  UNL1        0.0000
     28 C           0.0000    0.0000    0.0000 C.3     1  UNL1        0.0000
     29 C           0.0000    0.0000    0.0000 C.3     1  UNL1        0.0000
     30 C           0.0000    0.0000    0.0000 C.3     1  UNL1        0.0000
     31 C           0.0000    0.0000    0.0000 C.ar    1  UNL1        0.0000
     32 N           0.0000    0.0000    0.0000 N.ar    1  UNL1        0.0000
     33 N           0.0000    0.0000    0.0000 N.ar    1  UNL1        0.0000
     34 C           0.0000    0.0000    0.0000 C.ar    1  UNL1        0.0000
     35 C           0.0000    0.0000    0.0000 C.ar    1  UNL1        0.0000
     36 H          -1.7909   -1.1284    1.1693 H       1  UNL1        0.0000
     37 H           0.7664   -2.1632    0.9280 H       1  UNL1        0.0000
     38 H          -1.2111    1.4417    1.7204 H       1  UNL1        0.0000
     39 H          -0.3823   -1.4433   -1.9942 H       1  UNL1        0.0000
     40 H          -0.9760   -0.0550    2.1845 H       1  UNL1        0.0000
     41 H           1.7854   -1.0363    1.3329 H       1  UNL1        0.0000
     42 H          -2.3541   -0.6016   -0.2828 H       1  UNL1        0.0000
     43 H          -0.8105    0.8315   -2.1468 H       1  UNL1        0.0000
     44 H           1.9754    1.3398   -0.4192 H       1  UNL1        0.0000
     45 H           1.8190   -1.5717   -0.2211 H       1  UNL1        0.0000
     46 H          -2.0081    0.8492   -0.9835 H       1  UNL1        0.0000
     47 H           0.4544   -0.1440   -2.3716 H       1  UNL1        0.0000
     48 H           1.9072    0.0466   -1.4149 H       1  UNL1        0.0000
     49 H           0.3317    1.1907    2.0253 H       1  UNL1        0.0000
     50 H          -0.3265   -1.4987    1.9101 H       1  UNL1        0.0000
     51 H          -1.4311   -1.8022   -0.7925 H       1  UNL1        0.0000
     52 H          -0.2854    2.2832    0.7521 H       1  UNL1        0.0000
     53 H           0.2599   -2.2572   -0.6695 H       1  UNL1        0.0000
     54 H          -0.7552    2.0174   -1.0487 H       1  UNL1        0.0000
     55 H           0.2599   -2.2572   -0.6695 H       1  UNL1        0.0000
     56 H           1.8321    0.5587    1.5049 H       1  UNL1        0.0000
     57 H           1.2439   -1.3684   -1.7008 H       1  UNL1        0.0000
     58 H          -1.6308   -0.4953   -1.7649 H       1  UNL1        0.0000
     59 H           0.6867   -0.3434    2.3112 H       1  UNL1        0.0000
     60 H          -1.7323    1.8172    0.2368 H       1  UNL1        0.0000
     61 H           0.8138    1.3512   -1.7624 H       1  UNL1        0.0000
     62 H           0.8138    1.3512   -1.7624 H       1  UNL1        0.0000
     63 H           0.7058    2.4025   -0.4987 H       1  UNL1        0.0000
     64 H           2.4260   -0.1118    0.1342 H       1  UNL1        0.0000
     65 H          -0.8455   -2.2806    0.6051 H       1  UNL1        0.0000
     66 H          -2.1611    0.4142    0.9362 H       1  UNL1        0.0000
     67 H           1.2661    1.8907    0.9109 H       1  UNL1        0.0000
     68 EU          0.0000    0.0000    0.0000 Eu      1  UNL1        0.0000
@<TRIPOS>BOND
     1     1     2    2
     2     2     3   am
     3     3     4    1
     4     3     5    1
     5     5     6    1
     6     6     7    1
     7     2     8    1
     8     8     9   ar
     9     9    10   ar
    10     8    11   ar
    11    11    12   ar
    12    12    13   ar
    13    10    13   ar
    14    13    14   ar
    15    14    15   ar
    16    15    16   ar
    17    16    17   ar
    18    12    17   ar
    19    17    18   ar
    20    18    19   ar
    21    19    20    1
    22    20    21   ar
    23    21    22   ar
    24    22    23    1
    25    23    24    1
    26    23    25    1
    27    23    26    1
    28    26    27    1
    29    27    28    1
    30    28    29    1
    31    28    30    1
    32    22    31   ar
    33    28    31    1
    34    31    32   ar
    35    32    33   ar
    36    20    33   ar
    37    19    34   ar
    38    34    35   ar
    39    16    35   ar
    40     4    36    1
    41     4    37    1
    42     4    38    1
    43     5    39    1
    44     5    40    1
    45     6    41    1
    46     6    42    1
    47     7    43    1
    48     7    44    1
    49     7    45    1
    50     9    46    1
    51    10    47    1
    52    14    48    1
    53    15    49    1
    54    24    50    1
    55    24    51    1
    56    24    52    1
    57    25    53    1
    58    25    54    1
    59    25    55    1
    60    26    56    1
    61    26    57    1
    62    27    58    1
    63    27    59    1
    64    29    60    1
    65    29    61    1
    66    29    62    1
    67    30    63    1
    68    30    64    1
    69    30    65    1
    70    34    66    1
    71    35    67    1
    72    68     1    1
    73    68    33    1
    74    68    18    1
    75    68    11    1
@<TRIPOS>MOLECULE
*****
 68 75 0 0 0
SMALL
GASTEIGER

@<TRIPOS>ATOM
      1 O           0.0000    0.0000    0.0000 O.2     1  UNL1        0.0000
      2 C           0.0000    0.0000    0.0000 C.2     1  UNL1        0.0000
      3 N           0.0000    0.0000    0.0000 N.am    1  UNL1        0.0000
      4 C           0.0000    0.0000    0.0000 C.3     1  UNL1        0.0000
      5 C           0.0000    0.0000    0.0000 C.3     1  UNL1        0.0000
      6 C           0.0000    0.0000    0.0000 C.3     1  UNL1        0.0000
      7 C           0.0000    0.0000    0.0000 C.3     1  UNL1        0.0000
      8 C           0.0000    0.0000    0.0000 C.ar    1  UNL1        0.0000
      9 C           0.0000    0.0000    0.0000 C.ar    1  UNL1        0.0000
     10 C           0.0000    0.0000    0.0000 C.ar    1  UNL1        0.0000
     11 N           0.0000    0.0000    0.0000 N.ar    1  UNL1        0.0000
     12 C           0.0000    0.0000    0.0000 C.ar    1  UNL1        0.0000
     13 C           0.0000    0.0000    0.0000 C.ar    1  UNL1        0.0000
     14 C           0.0000    0.0000    0.0000 C.ar    1  UNL1        0.0000
     15 C           0.0000    0.0000    0.0000 C.ar    1  UNL1        0.0000
     16 C           0.0000    0.0000    0.0000 C.ar    1  UNL1        0.0000
     17 C           0.0000    0.0000    0.0000 C.ar    1  UNL1        0.0000
     18 N           0.0000    0.0000    0.0000 N.ar    1  UNL1        0.0000
     19 C           0.0000    0.0000    0.0000 C.ar    1  UNL1        0.0000
     20 C           0.0000    0.0000    0.0000 C.ar    1  UNL1        0.0000
     21 N           0.0000    0.0000    0.0000 N.ar    1  UNL1        0.0000
     22 C           0.0000    0.0000    0.0000 C.ar    1  UNL1        0.0000
     23 C           0.0000    0.0000    0.0000 C.3     1  UNL1        0.0000
     24 C           0.0000    0.0000    0.0000 C.3     1  UNL1        0.0000
     25 C           0.0000    0.0000    0.0000 C.3     1  UNL1        0.0000
     26 C           0.0000    0.0000    0.0000 C.3     1  UNL1        0.0000
     27 C           0.0000    0.0000    0.0000 C.3     1  UNL1        0.0000
     28 C           0.0000    0.0000    0.0000 C.3     1  UNL1        0.0000
     29 C           0.0000    0.0000    0.0000 C.3     1  UNL1        0.0000
     30 C           0.0000    0.0000    0.0000 C.3     1  UNL1        0.0000
     31 C           0.0000    0.0000    0.0000 C.ar    1  UNL1        0.0000
     32 N           0.0000    0.0000    0.0000 N.ar    1  UNL1        0.0000
     33 N           0.0000    0.0000    0.0000 N.ar    1  UNL1        0.0000
     34 C           0.0000    0.0000    0.0000 C.ar    1  UNL1        0.0000
     35 C           0.0000    0.0000    0.0000 C.ar    1  UNL1        0.0000
     36 H          -1.7887   -1.1339    1.1719 H       1  UNL1        0.0000
     37 H           0.7769   -2.1733    0.9142 H       1  UNL1        0.0000
     38 H          -1.2094    1.4321    1.7341 H       1  UNL1        0.0000
     39 H          -0.3812   -1.4325   -1.9966 H       1  UNL1        0.0000
     40 H          -0.9747   -0.0672    2.1872 H       1  UNL1        0.0000
     41 H           1.7647   -1.0335    1.3412 H       1  UNL1        0.0000
     42 H          -2.3529   -0.6070   -0.2796 H       1  UNL1        0.0000
     43 H          -0.8124    0.8312   -2.1435 H       1  UNL1        0.0000
     44 H           1.9729    1.3430   -0.4138 H       1  UNL1        0.0000
     45 H           1.8217   -1.5661   -0.2227 H       1  UNL1        0.0000
     46 H          -2.0070    0.8489   -0.9582 H       1  UNL1        0.0000
     47 H           0.4592   -0.1395   -2.3681 H       1  UNL1        0.0000
     48 H           1.9071    0.0534   -1.4149 H       1  UNL1        0.0000
     49 H           0.3328    1.1932    2.0306 H       1  UNL1        0.0000
     50 H          -0.3175   -1.5068    1.9136 H       1  UNL1        0.0000
     51 H          -1.4291   -1.8035   -0.7936 H       1  UNL1        0.0000
     52 H          -0.2775    2.2828    0.7631 H       1  UNL1        0.0000
     53 H           0.2608   -2.2530   -0.6744 H       1  UNL1        0.0000
     54 H          -0.7595    2.0179   -1.0445 H       1  UNL1        0.0000
     55 H           0.2608   -2.2530   -0.6744 H       1  UNL1        0.0000
     56 H           1.8260    0.5532    1.5058 H       1  UNL1        0.0000
     57 H           1.2481   -1.3647   -1.7000 H       1  UNL1        0.0000
     58 H          -1.6350   -0.4941   -1.7617 H       1  UNL1        0.0000
     59 H           0.6760   -0.3404    2.3181 H       1  UNL1        0.0000
     60 H          -1.7247    1.8161    0.2508 H       1  UNL1        0.0000
     61 H           0.8127    1.3575   -1.7588 H       1  UNL1        0.0000
     62 H           0.8127    1.3575   -1.7588 H       1  UNL1        0.0000
     63 H           0.6959    2.4056   -0.4929 H       1  UNL1        0.0000
     64 H           2.4285   -0.1071    0.1333 H       1  UNL1        0.0000
     65 H          -0.8391   -2.2780    0.6043 H       1  UNL1        0.0000
     66 H          -2.1517    0.4138    0.9298 H       1  UNL1        0.0000
     67 H           1.2655    1.8897    0.9154 H       1  UNL1        0.0000
     68 EU          0.0000    0.0000    0.0000 Eu      1  UNL1        0.0000
@<TRIPOS>BOND
     1     1     2    2
     2     2     3   am
     3     3     4    1
     4     3     5    1
     5     5     6    1
     6     6     7    1
     7     2     8    1
     8     8     9   ar
     9     9    10   ar
    10     8    11   ar
    11    11    12   ar
    12    12    13   ar
    13    10    13   ar
    14    13    14   ar
    15    14    15   ar
    16    15    16   ar
    17    16    17   ar
    18    12    17   ar
    19    17    18   ar
    20    18    19   ar
    21    19    20    1
    22    20    21   ar
    23    21    22   ar
    24    22    23    1
    25    23    24    1
    26    23    25    1
    27    23    26    1
    28    26    27    1
    29    27    28    1
    30    28    29    1
    31    28    30    1
    32    22    31   ar
    33    28    31    1
    34    31    32   ar
    35    32    33   ar
    36    20    33   ar
    37    19    34   ar
    38    34    35   ar
    39    16    35   ar
    40     4    36    1
    41     4    37    1
    42     4    38    1
    43     5    39    1
    44     5    40    1
    45     6    41    1
    46     6    42    1
    47     7    43    1
    48     7    44    1
    49     7    45    1
    50     9    46    1
    51    10    47    1
    52    14    48    1
    53    15    49    1
    54    24    50    1
    55    24    51    1
    56    24    52    1
    57    25    53    1
    58    25    54    1
    59    25    55    1
    60    26    56    1
    61    26    57    1
    62    27    58    1
    63    27    59    1
    64    29    60    1
    65    29    61    1
    66    29    62    1
    67    30    63    1
    68    30    64    1
    69    30    65    1
    70    34    66    1
    71    35    67    1
    72    68     1    1
    73    68    33    1
    74    68    18    1
    75    68    11    1
@<TRIPOS>MOLECULE
*****
 68 75 0 0 0
SMALL
GASTEIGER

@<TRIPOS>ATOM
      1 O           0.0000    0.0000    0.0000 O.2     1  UNL1        0.0000
      2 C           0.0000    0.0000    0.0000 C.2     1  UNL1        0.0000
      3 N           0.0000    0.0000    0.0000 N.am    1  UNL1        0.0000
      4 C           0.0000    0.0000    0.0000 C.3     1  UNL1        0.0000
      5 C           0.0000    0.0000    0.0000 C.3     1  UNL1        0.0000
      6 C           0.0000    0.0000    0.0000 C.3     1  UNL1        0.0000
      7 C           0.0000    0.0000    0.0000 C.3     1  UNL1        0.0000
      8 C           0.0000    0.0000    0.0000 C.ar    1  UNL1        0.0000
      9 C           0.0000    0.0000    0.0000 C.ar    1  UNL1        0.0000
     10 C           0.0000    0.0000    0.0000 C.ar    1  UNL1        0.0000
     11 N           0.0000    0.0000    0.0000 N.ar    1  UNL1        0.0000
     12 C           0.0000    0.0000    0.0000 C.ar    1  UNL1        0.0000
     13 C           0.0000    0.0000    0.0000 C.ar    1  UNL1        0.0000
     14 C           0.0000    0.0000    0.0000 C.ar    1  UNL1        0.0000
     15 C           0.0000    0.0000    0.0000 C.ar    1  UNL1        0.0000
     16 C           0.0000    0.0000    0.0000 C.ar    1  UNL1        0.0000
     17 C           0.0000    0.0000    0.0000 C.ar    1  UNL1        0.0000
     18 N           0.0000    0.0000    0.0000 N.ar    1  UNL1        0.0000
     19 C           0.0000    0.0000    0.0000 C.ar    1  UNL1        0.0000
     20 C           0.0000    0.0000    0.0000 C.ar    1  UNL1        0.0000
     21 N           0.0000    0.0000    0.0000 N.ar    1  UNL1        0.0000
     22 C           0.0000    0.0000    0.0000 C.ar    1  UNL1        0.0000
     23 C           0.0000    0.0000    0.0000 C.3     1  UNL1        0.0000
     24 C           0.0000    0.0000    0.0000 C.3     1  UNL1        0.0000
     25 C           0.0000    0.0000    0.0000 C.3     1  UNL1        0.0000
     26 C           0.0000    0.0000    0.0000 C.3     1  UNL1        0.0000
     27 C           0.0000    0.0000    0.0000 C.3     1  UNL1        0.0000
     28 C           0.0000    0.0000    0.0000 C.3     1  UNL1        0.0000
     29 C           0.0000    0.0000    0.0000 C.3     1  UNL1        0.0000
     30 C           0.0000    0.0000    0.0000 C.3     1  UNL1        0.0000
     31 C           0.0000    0.0000    0.0000 C.ar    1  UNL1        0.0000
     32 N           0.0000    0.0000    0.0000 N.ar    1  UNL1        0.0000
     33 N           0.0000    0.0000    0.0000 N.ar    1  UNL1        0.0000
     34 C           0.0000    0.0000    0.0000 C.ar    1  UNL1        0.0000
     35 C           0.0000    0.0000    0.0000 C.ar    1  UNL1        0.0000
     36 H          -1.7977   -1.1316    1.1647 H       1  UNL1        0.0000
     37 H           0.7622   -2.1570    0.9322 H       1  UNL1        0.0000
     38 H          -1.2173    1.4398    1.7340 H       1  UNL1        0.0000
     39 H          -0.3821   -1.4274   -2.0093 H       1  UNL1        0.0000
     40 H          -0.9858   -0.0617    2.1791 H       1  UNL1        0.0000
     41 H           1.7803   -1.0341    1.3394 H       1  UNL1        0.0000
     42 H          -2.3550   -0.6132   -0.2893 H       1  UNL1        0.0000
     43 H          -0.8166    0.8387   -2.1487 H       1  UNL1        0.0000
     44 H           1.9727    1.3457   -0.4205 H       1  UNL1        0.0000
     45 H           1.8196   -1.5663   -0.2219 H       1  UNL1        0.0000
     46 H          -1.9973    0.8322   -0.9596 H       1  UNL1        0.0000
     47 H           0.4585   -0.1352   -2.3666 H       1  UNL1        0.0000
     48 H           1.9058    0.0506   -1.4154 H       1  UNL1        0.0000
     49 H           0.3292    1.1894    2.0287 H       1  UNL1        0.0000
     50 H          -0.3362   -1.5061    1.9111 H       1  UNL1        0.0000
     51 H          -1.4266   -1.8013   -0.8039 H       1  UNL1        0.0000
     52 H          -0.2785    2.2841    0.7558 H       1  UNL1        0.0000
     53 H           0.2674   -2.2508   -0.6756 H       1  UNL1        0.0000
     54 H          -0.7592    2.0174   -1.0455 H       1  UNL1        0.0000
     55 H           0.2674   -2.2508   -0.6756 H       1  UNL1        0.0000
     56 H           1.8253    0.5517    1.5118 H       1  UNL1        0.0000
     57 H           1.2486   -1.3702   -1.7078 H       1  UNL1        0.0000
     58 H          -1.6434   -0.5004   -1.7702 H       1  UNL1        0.0000
     59 H           0.6774   -0.3496    2.3049 H       1  UNL1        0.0000
     60 H          -1.7203    1.8211    0.2491 H       1  UNL1        0.0000
     61 H           0.8100    1.3587   -1.7572 H       1  UNL1        0.0000
     62 H           0.8100    1.3587   -1.7572 H       1  UNL1        0.0000
     63 H           0.7042    2.4047   -0.4875 H       1  UNL1        0.0000
     64 H           2.4247   -0.1052    0.1344 H       1  UNL1        0.0000
     65 H          -0.8442   -2.2748    0.6047 H       1  UNL1        0.0000
     66 H          -2.1527    0.4168    0.9136 H       1  UNL1        0.0000
     67 H           1.2659    1.8839    0.9148 H       1  UNL1        0.0000
     68 EU          0.0000    0.0000    0.0000 Eu      1  UNL1        0.0000
@<TRIPOS>BOND
     1     1     2    2
     2     2     3   am
     3     3     4    1
     4     3     5    1
     5     5     6    1
     6     6     7    1
     7     2     8    1
     8     8     9   ar
     9     9    10   ar
    10     8    11   ar
    11    11    12   ar
    12    12    13   ar
    13    10    13   ar
    14    13    14   ar
    15    14    15   ar
    16    15    16   ar
    17    16    17   ar
    18    12    17   ar
    19    17    18   ar
    20    18    19   ar
    21    19    20    1
    22    20    21   ar
    23    21    22   ar
    24    22    23    1
    25    23    24    1
    26    23    25    1
    27    23    26    1
    28    26    27    1
    29    27    28    1
    30    28    29    1
    31    28    30    1
    32    22    31   ar
    33    28    31    1
    34    31    32   ar
    35    32    33   ar
    36    20    33   ar
    37    19    34   ar
    38    34    35   ar
    39    16    35   ar
    40     4    36    1
    41     4    37    1
    42     4    38    1
    43     5    39    1
    44     5    40    1
    45     6    41    1
    46     6    42    1
    47     7    43    1
    48     7    44    1
    49     7    45    1
    50     9    46    1
    51    10    47    1
    52    14    48    1
    53    15    49    1
    54    24    50    1
    55    24    51    1
    56    24    52    1
    57    25    53    1
    58    25    54    1
    59    25    55    1
    60    26    56    1
    61    26    57    1
    62    27    58    1
    63    27    59    1
    64    29    60    1
    65    29    61    1
    66    29    62    1
    67    30    63    1
    68    30    64    1
    69    30    65    1
    70    34    66    1
    71    35    67    1
    72    68     1    1
    73    68    33    1
    74    68    18    1
    75    68    11    1
@<TRIPOS>MOLECULE
*****
 68 75 0 0 0
SMALL
GASTEIGER

@<TRIPOS>ATOM
      1 O           0.0000    0.0000    0.0000 O.2     1  UNL1        0.0000
      2 C           0.0000    0.0000    0.0000 C.2     1  UNL1        0.0000
      3 N           0.0000    0.0000    0.0000 N.am    1  UNL1        0.0000
      4 C           0.0000    0.0000    0.0000 C.3     1  UNL1        0.0000
      5 C           0.0000    0.0000    0.0000 C.3     1  UNL1        0.0000
      6 C           0.0000    0.0000    0.0000 C.3     1  UNL1        0.0000
      7 C           0.0000    0.0000    0.0000 C.3     1  UNL1        0.0000
      8 C           0.0000    0.0000    0.0000 C.ar    1  UNL1        0.0000
      9 C           0.0000    0.0000    0.0000 C.ar    1  UNL1        0.0000
     10 C           0.0000    0.0000    0.0000 C.ar    1  UNL1        0.0000
     11 N           0.0000    0.0000    0.0000 N.ar    1  UNL1        0.0000
     12 C           0.0000    0.0000    0.0000 C.ar    1  UNL1        0.0000
     13 C           0.0000    0.0000    0.0000 C.ar    1  UNL1        0.0000
     14 C           0.0000    0.0000    0.0000 C.ar    1  UNL1        0.0000
     15 C           0.0000    0.0000    0.0000 C.ar    1  UNL1        0.0000
     16 C           0.0000    0.0000    0.0000 C.ar    1  UNL1        0.0000
     17 C           0.0000    0.0000    0.0000 C.ar    1  UNL1        0.0000
     18 N           0.0000    0.0000    0.0000 N.ar    1  UNL1        0.0000
     19 C           0.0000    0.0000    0.0000 C.ar    1  UNL1        0.0000
     20 C           0.0000    0.0000    0.0000 C.ar    1  UNL1        0.0000
     21 N           0.0000    0.0000    0.0000 N.ar    1  UNL1        0.0000
     22 C           0.0000    0.0000    0.0000 C.ar    1  UNL1        0.0000
     23 C           0.0000    0.0000    0.0000 C.3     1  UNL1        0.0000
     24 C           0.0000    0.0000    0.0000 C.3     1  UNL1        0.0000
     25 C           0.0000    0.0000    0.0000 C.3     1  UNL1        0.0000
     26 C           0.0000    0.0000    0.0000 C.3     1  UNL1        0.0000
     27 C           0.0000    0.0000    0.0000 C.3     1  UNL1        0.0000
     28 C           0.0000    0.0000    0.0000 C.3     1  UNL1        0.0000
     29 C           0.0000    0.0000    0.0000 C.3     1  UNL1        0.0000
     30 C           0.0000    0.0000    0.0000 C.3     1  UNL1        0.0000
     31 C           0.0000    0.0000    0.0000 C.ar    1  UNL1        0.0000
     32 N           0.0000    0.0000    0.0000 N.ar    1  UNL1        0.0000
     33 N           0.0000    0.0000    0.0000 N.ar    1  UNL1        0.0000
     34 C           0.0000    0.0000    0.0000 C.ar    1  UNL1        0.0000
     35 C           0.0000    0.0000    0.0000 C.ar    1  UNL1        0.0000
     36 H          -1.7931   -1.1369    1.1628 H       1  UNL1        0.0000
     37 H           0.7705   -2.1631    0.9254 H       1  UNL1        0.0000
     38 H          -1.2137    1.4340    1.7346 H       1  UNL1        0.0000
     39 H          -0.3795   -1.4337   -1.9976 H       1  UNL1        0.0000
     40 H          -0.9853   -0.0715    2.1791 H       1  UNL1        0.0000
     41 H           1.7797   -1.0350    1.3429 H       1  UNL1        0.0000
     42 H          -2.3549   -0.6045   -0.2869 H       1  UNL1        0.0000
     43 H          -0.8090    0.8324   -2.1496 H       1  UNL1        0.0000
     44 H           1.9751    1.3452   -0.4182 H       1  UNL1        0.0000
     45 H           1.8273   -1.5616   -0.2196 H       1  UNL1        0.0000
     46 H          -1.9996    0.8673   -0.9667 H       1  UNL1        0.0000
     47 H           0.4591   -0.1391   -2.3684 H       1  UNL1        0.0000
     48 H           1.9112    0.0451   -1.4058 H       1  UNL1        0.0000
     49 H           0.3282    1.1849    2.0301 H       1  UNL1        0.0000
     50 H          -0.3185   -1.5057    1.9031 H       1  UNL1        0.0000
     51 H          -1.4290   -1.8036   -0.7937 H       1  UNL1        0.0000
     52 H          -0.2667    2.2787    0.7573 H       1  UNL1        0.0000
     53 H           0.2635   -2.2562   -0.6726 H       1  UNL1        0.0000
     54 H          -0.7613    2.0199   -1.0443 H       1  UNL1        0.0000
     55 H           0.2635   -2.2562   -0.6726 H       1  UNL1        0.0000
     56 H           1.8237    0.5503    1.5194 H       1  UNL1        0.0000
     57 H           1.2461   -1.3663   -1.7016 H       1  UNL1        0.0000
     58 H          -1.6275   -0.4831   -1.7564 H       1  UNL1        0.0000
     59 H           0.6779   -0.3489    2.3156 H       1  UNL1        0.0000
     60 H          -1.7200    1.8068    0.2408 H       1  UNL1        0.0000
     61 H           0.8152    1.3534   -1.7588 H       1  UNL1        0.0000
     62 H           0.8152    1.3534   -1.7588 H       1  UNL1        0.0000
     63 H           0.6984    2.4039   -0.4945 H       1  UNL1        0.0000
     64 H           2.4246   -0.1005    0.1445 H       1  UNL1        0.0000
     65 H          -0.8417   -2.2829    0.6011 H       1  UNL1        0.0000
     66 H          -2.1526    0.4155    0.9268 H       1  UNL1        0.0000
     67 H           1.2629    1.8829    0.9171 H       1  UNL1        0.0000
     68 EU          0.0000    0.0000    0.0000 Eu      1  UNL1        0.0000
@<TRIPOS>BOND
     1     1     2    2
     2     2     3   am
     3     3     4    1
     4     3     5    1
     5     5     6    1
     6     6     7    1
     7     2     8    1
     8     8     9   ar
     9     9    10   ar
    10     8    11   ar
    11    11    12   ar
    12    12    13   ar
    13    10    13   ar
    14    13    14   ar
    15    14    15   ar
    16    15    16   ar
    17    16    17   ar
    18    12    17   ar
    19    17    18   ar
    20    18    19   ar
    21    19    20    1
    22    20    21   ar
    23    21    22   ar
    24    22    23    1
    25    23    24    1
    26    23    25    1
    27    23    26    1
    28    26    27    1
    29    27    28    1
    30    28    29    1
    31    28    30    1
    32    22    31   ar
    33    28    31    1
    34    31    32   ar
    35    32    33   ar
    36    20    33   ar
    37    19    34   ar
    38    34    35   ar
    39    16    35   ar
    40     4    36    1
    41     4    37    1
    42     4    38    1
    43     5    39    1
    44     5    40    1
    45     6    41    1
    46     6    42    1
    47     7    43    1
    48     7    44    1
    49     7    45    1
    50     9    46    1
    51    10    47    1
    52    14    48    1
    53    15    49    1
    54    24    50    1
    55    24    51    1
    56    24    52    1
    57    25    53    1
    58    25    54    1
    59    25    55    1
    60    26    56    1
    61    26    57    1
    62    27    58    1
    63    27    59    1
    64    29    60    1
    65    29    61    1
    66    29    62    1
    67    30    63    1
    68    30    64    1
    69    30    65    1
    70    34    66    1
    71    35    67    1
    72    68     1    1
    73    68    33    1
    74    68    18    1
    75    68    11    1
@<TRIPOS>MOLECULE
*****
 68 75 0 0 0
SMALL
GASTEIGER

@<TRIPOS>ATOM
      1 O           0.0000    0.0000    0.0000 O.2     1  UNL1        0.0000
      2 C           0.0000    0.0000    0.0000 C.2     1  UNL1        0.0000
      3 N           0.0000    0.0000    0.0000 N.am    1  UNL1        0.0000
      4 C           0.0000    0.0000    0.0000 C.3     1  UNL1        0.0000
      5 C           0.0000    0.0000    0.0000 C.3     1  UNL1        0.0000
      6 C           0.0000    0.0000    0.0000 C.3     1  UNL1        0.0000
      7 C           0.0000    0.0000    0.0000 C.3     1  UNL1        0.0000
      8 C           0.0000    0.0000    0.0000 C.ar    1  UNL1        0.0000
      9 C           0.0000    0.0000    0.0000 C.ar    1  UNL1        0.0000
     10 C           0.0000    0.0000    0.0000 C.ar    1  UNL1        0.0000
     11 N           0.0000    0.0000    0.0000 N.ar    1  UNL1        0.0000
     12 C           0.0000    0.0000    0.0000 C.ar    1  UNL1        0.0000
     13 C           0.0000    0.0000    0.0000 C.ar    1  UNL1        0.0000
     14 C           0.0000    0.0000    0.0000 C.ar    1  UNL1        0.0000
     15 C           0.0000    0.0000    0.0000 C.ar    1  UNL1        0.0000
     16 C           0.0000    0.0000    0.0000 C.ar    1  UNL1        0.0000
     17 C           0.0000    0.0000    0.0000 C.ar    1  UNL1        0.0000
     18 N           0.0000    0.0000    0.0000 N.ar    1  UNL1        0.0000
     19 C           0.0000    0.0000    0.0000 C.ar    1  UNL1        0.0000
     20 C           0.0000    0.0000    0.0000 C.ar    1  UNL1        0.0000
     21 N           0.0000    0.0000    0.0000 N.ar    1  UNL1        0.0000
     22 C           0.0000    0.0000    0.0000 C.ar    1  UNL1        0.0000
     23 C           0.0000    0.0000    0.0000 C.3     1  UNL1        0.0000
     24 C           0.0000    0.0000    0.0000 C.3     1  UNL1        0.0000
     25 C           0.0000    0.0000    0.0000 C.3     1  UNL1        0.0000
     26 C           0.0000    0.0000    0.0000 C.3     1  UNL1        0.0000
     27 C           0.0000    0.0000    0.0000 C.3     1  UNL1        0.0000
     28 C           0.0000    0.0000    0.0000 C.3     1  UNL1        0.0000
     29 C           0.0000    0.0000    0.0000 C.3     1  UNL1        0.0000
     30 C           0.0000    0.0000    0.0000 C.3     1  UNL1        0.0000
     31 C           0.0000    0.0000    0.0000 C.ar    1  UNL1        0.0000
     32 N           0.0000    0.0000    0.0000 N.ar    1  UNL1        0.0000
     33 N           0.0000    0.0000    0.0000 N.ar    1  UNL1        0.0000
     34 C           0.0000    0.0000    0.0000 C.ar    1  UNL1        0.0000
     35 C           0.0000    0.0000    0.0000 C.ar    1  UNL1        0.0000
     36 H          -1.7908   -1.1458    1.1558 H       1  UNL1        0.0000
     37 H           0.7766   -2.1605    0.9229 H       1  UNL1        0.0000
     38 H          -1.2142    1.4191    1.7366 H       1  UNL1        0.0000
     39 H          -0.3728   -1.4320   -1.9971 H       1  UNL1        0.0000
     40 H          -0.9904   -0.0838    2.1807 H       1  UNL1        0.0000
     41 H           1.7795   -1.0295    1.3422 H       1  UNL1        0.0000
     42 H          -2.3512   -0.6156   -0.2933 H       1  UNL1        0.0000
     43 H          -0.8111    0.8394   -2.1434 H       1  UNL1        0.0000
     44 H           1.9695    1.3493   -0.4099 H       1  UNL1        0.0000
     45 H           1.8267   -1.5599   -0.2233 H       1  UNL1        0.0000
     46 H          -2.0045    0.8435   -0.9652 H       1  UNL1        0.0000
     47 H           0.4593   -0.1328   -2.3694 H       1  UNL1        0.0000
     48 H           1.9087    0.0560   -1.4101 H       1  UNL1        0.0000
     49 H           0.3245    1.1857    2.0308 H       1  UNL1        0.0000
     50 H          -0.3176   -1.5149    1.9103 H       1  UNL1        0.0000
     51 H          -1.4243   -1.8205   -0.8032 H       1  UNL1        0.0000
     52 H          -0.2899    2.2782    0.7605 H       1  UNL1        0.0000
     53 H           0.2699   -2.2547   -0.6768 H       1  UNL1        0.0000
     54 H          -0.7667    2.0190   -1.0388 H       1  UNL1        0.0000
     55 H           0.2699   -2.2547   -0.6768 H       1  UNL1        0.0000
     56 H           1.8241    0.5546    1.5166 H       1  UNL1        0.0000
     57 H           1.2516   -1.3605   -1.7048 H       1  UNL1        0.0000
     58 H          -1.6252   -0.4955   -1.7686 H       1  UNL1        0.0000
     59 H           0.6757   -0.3468    2.3141 H       1  UNL1        0.0000
     60 H          -1.7296    1.8063    0.2527 H       1  UNL1        0.0000
     61 H           0.8114    1.3634   -1.7541 H       1  UNL1        0.0000
     62 H           0.8114    1.3634   -1.7541 H       1  UNL1        0.0000
     63 H           0.6949    2.4097   -0.4823 H       1  UNL1        0.0000
     64 H           2.4267   -0.0997    0.1411 H       1  UNL1        0.0000
     65 H          -0.8451   -2.2954    0.6030 H       1  UNL1        0.0000
     66 H          -2.1579    0.4067    0.9241 H       1  UNL1        0.0000
     67 H           1.2560    1.9002    0.9263 H       1  UNL1        0.0000
     68 EU          0.0000    0.0000    0.0000 Eu      1  UNL1        0.0000
@<TRIPOS>BOND
     1     1     2    2
     2     2     3   am
     3     3     4    1
     4     3     5    1
     5     5     6    1
     6     6     7    1
     7     2     8    1
     8     8     9   ar
     9     9    10   ar
    10     8    11   ar
    11    11    12   ar
    12    12    13   ar
    13    10    13   ar
    14    13    14   ar
    15    14    15   ar
    16    15    16   ar
    17    16    17   ar
    18    12    17   ar
    19    17    18   ar
    20    18    19   ar
    21    19    20    1
    22    20    21   ar
    23    21    22   ar
    24    22    23    1
    25    23    24    1
    26    23    25    1
    27    23    26    1
    28    26    27    1
    29    27    28    1
    30    28    29    1
    31    28    30    1
    32    22    31   ar
    33    28    31    1
    34    31    32   ar
    35    32    33   ar
    36    20    33   ar
    37    19    34   ar
    38    34    35   ar
    39    16    35   ar
    40     4    36    1
    41     4    37    1
    42     4    38    1
    43     5    39    1
    44     5    40    1
    45     6    41    1
    46     6    42    1
    47     7    43    1
    48     7    44    1
    49     7    45    1
    50     9    46    1
    51    10    47    1
    52    14    48    1
    53    15    49    1
    54    24    50    1
    55    24    51    1
    56    24    52    1
    57    25    53    1
    58    25    54    1
    59    25    55    1
    60    26    56    1
    61    26    57    1
    62    27    58    1
    63    27    59    1
    64    29    60    1
    65    29    61    1
    66    29    62    1
    67    30    63    1
    68    30    64    1
    69    30    65    1
    70    34    66    1
    71    35    67    1
    72    68     1    1
    73    68    33    1
    74    68    18    1
    75    68    11    1
@<TRIPOS>MOLECULE
*****
 68 75 0 0 0
SMALL
GASTEIGER

@<TRIPOS>ATOM
      1 O           0.0000    0.0000    0.0000 O.2     1  UNL1        0.0000
      2 C           0.0000    0.0000    0.0000 C.2     1  UNL1        0.0000
      3 N           0.0000    0.0000    0.0000 N.am    1  UNL1        0.0000
      4 C           0.0000    0.0000    0.0000 C.3     1  UNL1        0.0000
      5 C           0.0000    0.0000    0.0000 C.3     1  UNL1        0.0000
      6 C           0.0000    0.0000    0.0000 C.3     1  UNL1        0.0000
      7 C           0.0000    0.0000    0.0000 C.3     1  UNL1        0.0000
      8 C           0.0000    0.0000    0.0000 C.ar    1  UNL1        0.0000
      9 C           0.0000    0.0000    0.0000 C.ar    1  UNL1        0.0000
     10 C           0.0000    0.0000    0.0000 C.ar    1  UNL1        0.0000
     11 N           0.0000    0.0000    0.0000 N.ar    1  UNL1        0.0000
     12 C           0.0000    0.0000    0.0000 C.ar    1  UNL1        0.0000
     13 C           0.0000    0.0000    0.0000 C.ar    1  UNL1        0.0000
     14 C           0.0000    0.0000    0.0000 C.ar    1  UNL1        0.0000
     15 C           0.0000    0.0000    0.0000 C.ar    1  UNL1        0.0000
     16 C           0.0000    0.0000    0.0000 C.ar    1  UNL1        0.0000
     17 C           0.0000    0.0000    0.0000 C.ar    1  UNL1        0.0000
     18 N           0.0000    0.0000    0.0000 N.ar    1  UNL1        0.0000
     19 C           0.0000    0.0000    0.0000 C.ar    1  UNL1        0.0000
     20 C           0.0000    0.0000    0.0000 C.ar    1  UNL1        0.0000
     21 N           0.0000    0.0000    0.0000 N.ar    1  UNL1        0.0000
     22 C           0.0000    0.0000    0.0000 C.ar    1  UNL1        0.0000
     23 C           0.0000    0.0000    0.0000 C.3     1  UNL1        0.0000
     24 C           0.0000    0.0000    0.0000 C.3     1  UNL1        0.0000
     25 C           0.0000    0.0000    0.0000 C.3     1  UNL1        0.0000
     26 C           0.0000    0.0000    0.0000 C.3     1  UNL1        0.0000
     27 C           0.0000    0.0000    0.0000 C.3     1  UNL1        0.0000
     28 C           0.0000    0.0000    0.0000 C.3     1  UNL1        0.0000
     29 C           0.0000    0.0000    0.0000 C.3     1  UNL1        0.0000
     30 C           0.0000    0.0000    0.0000 C.3     1  UNL1        0.0000
     31 C           0.0000    0.0000    0.0000 C.ar    1  UNL1        0.0000
     32 N           0.0000    0.0000    0.0000 N.ar    1  UNL1        0.0000
     33 N           0.0000    0.0000    0.0000 N.ar    1  UNL1        0.0000
     34 C           0.0000    0.0000    0.0000 C.ar    1  UNL1        0.0000
     35 C           0.0000    0.0000    0.0000 C.ar    1  UNL1        0.0000
     36 H          -1.7946   -1.1361    1.1590 H       1  UNL1        0.0000
     37 H           0.7656   -2.1563    0.9165 H       1  UNL1        0.0000
     38 H          -1.2235    1.4337    1.7327 H       1  UNL1        0.0000
     39 H          -0.3742   -1.4272   -2.0124 H       1  UNL1        0.0000
     40 H          -0.9919   -0.0708    2.1777 H       1  UNL1        0.0000
     41 H           1.7745   -1.0322    1.3469 H       1  UNL1        0.0000
     42 H          -2.3539   -0.6101   -0.2937 H       1  UNL1        0.0000
     43 H          -0.8069    0.8390   -2.1446 H       1  UNL1        0.0000
     44 H           1.9737    1.3489   -0.4185 H       1  UNL1        0.0000
     45 H           1.8256   -1.5585   -0.2226 H       1  UNL1        0.0000
     46 H          -2.0023    0.8464   -0.9647 H       1  UNL1        0.0000
     47 H           0.4591   -0.1474   -2.3603 H       1  UNL1        0.0000
     48 H           1.9127    0.0497   -1.4071 H       1  UNL1        0.0000
     49 H           0.3198    1.1892    2.0267 H       1  UNL1        0.0000
     50 H          -0.3270   -1.5111    1.9059 H       1  UNL1        0.0000
     51 H          -1.4210   -1.8067   -0.8122 H       1  UNL1        0.0000
     52 H          -0.2831    2.2797    0.7597 H       1  UNL1        0.0000
     53 H           0.2683   -2.2518   -0.6869 H       1  UNL1        0.0000
     54 H          -0.7586    2.0208   -1.0463 H       1  UNL1        0.0000
     55 H           0.2683   -2.2518   -0.6869 H       1  UNL1        0.0000
     56 H           1.8178    0.5545    1.5262 H       1  UNL1        0.0000
     57 H           1.2599   -1.3677   -1.7103 H       1  UNL1        0.0000
     58 H          -1.6327   -0.4889   -1.7696 H       1  UNL1        0.0000
     59 H           0.6696   -0.3462    2.3159 H       1  UNL1        0.0000
     60 H          -1.7230    1.8193    0.2421 H       1  UNL1        0.0000
     61 H           0.8157    1.3619   -1.7531 H       1  UNL1        0.0000
     62 H           0.8157    1.3619   -1.7531 H       1  UNL1        0.0000
     63 H           0.6973    2.4069   -0.4841 H       1  UNL1        0.0000
     64 H           2.4219   -0.0971    0.1494 H       1  UNL1        0.0000
     65 H          -0.8403   -2.2801    0.5913 H       1  UNL1        0.0000
     66 H          -2.1537    0.4179    0.9112 H       1  UNL1        0.0000
     67 H           1.2662    1.8839    0.9169 H       1  UNL1        0.0000
     68 EU          0.0000    0.0000    0.0000 Eu      1  UNL1        0.0000
@<TRIPOS>BOND
     1     1     2    2
     2     2     3   am
     3     3     4    1
     4     3     5    1
     5     5     6    1
     6     6     7    1
     7     2     8    1
     8     8     9   ar
     9     9    10   ar
    10     8    11   ar
    11    11    12   ar
    12    12    13   ar
    13    10    13   ar
    14    13    14   ar
    15    14    15   ar
    16    15    16   ar
    17    16    17   ar
    18    12    17   ar
    19    17    18   ar
    20    18    19   ar
    21    19    20    1
    22    20    21   ar
    23    21    22   ar
    24    22    23    1
    25    23    24    1
    26    23    25    1
    27    23    26    1
    28    26    27    1
    29    27    28    1
    30    28    29    1
    31    28    30    1
    32    22    31   ar
    33    28    31    1
    34    31    32   ar
    35    32    33   ar
    36    20    33   ar
    37    19    34   ar
    38    34    35   ar
    39    16    35   ar
    40     4    36    1
    41     4    37    1
    42     4    38    1
    43     5    39    1
    44     5    40    1
    45     6    41    1
    46     6    42    1
    47     7    43    1
    48     7    44    1
    49     7    45    1
    50     9    46    1
    51    10    47    1
    52    14    48    1
    53    15    49    1
    54    24    50    1
    55    24    51    1
    56    24    52    1
    57    25    53    1
    58    25    54    1
    59    25    55    1
    60    26    56    1
    61    26    57    1
    62    27    58    1
    63    27    59    1
    64    29    60    1
    65    29    61    1
    66    29    62    1
    67    30    63    1
    68    30    64    1
    69    30    65    1
    70    34    66    1
    71    35    67    1
    72    68     1    1
    73    68    33    1
    74    68    18    1
    75    68    11    1
@<TRIPOS>MOLECULE
*****
 68 75 0 0 0
SMALL
GASTEIGER

@<TRIPOS>ATOM
      1 O           0.0000    0.0000    0.0000 O.2     1  UNL1        0.0000
      2 C           0.0000    0.0000    0.0000 C.2     1  UNL1        0.0000
      3 N           0.0000    0.0000    0.0000 N.am    1  UNL1        0.0000
      4 C           0.0000    0.0000    0.0000 C.3     1  UNL1        0.0000
      5 C           0.0000    0.0000    0.0000 C.3     1  UNL1        0.0000
      6 C           0.0000    0.0000    0.0000 C.3     1  UNL1        0.0000
      7 C           0.0000    0.0000    0.0000 C.3     1  UNL1        0.0000
      8 C           0.0000    0.0000    0.0000 C.ar    1  UNL1        0.0000
      9 C           0.0000    0.0000    0.0000 C.ar    1  UNL1        0.0000
     10 C           0.0000    0.0000    0.0000 C.ar    1  UNL1        0.0000
     11 N           0.0000    0.0000    0.0000 N.ar    1  UNL1        0.0000
     12 C           0.0000    0.0000    0.0000 C.ar    1  UNL1        0.0000
     13 C           0.0000    0.0000    0.0000 C.ar    1  UNL1        0.0000
     14 C           0.0000    0.0000    0.0000 C.ar    1  UNL1        0.0000
     15 C           0.0000    0.0000    0.0000 C.ar    1  UNL1        0.0000
     16 C           0.0000    0.0000    0.0000 C.ar    1  UNL1        0.0000
     17 C           0.0000    0.0000    0.0000 C.ar    1  UNL1        0.0000
     18 N           0.0000    0.0000    0.0000 N.ar    1  UNL1        0.0000
     19 C           0.0000    0.0000    0.0000 C.ar    1  UNL1        0.0000
     20 C           0.0000    0.0000    0.0000 C.ar    1  UNL1        0.0000
     21 N           0.0000    0.0000    0.0000 N.ar    1  UNL1        0.0000
     22 C           0.0000    0.0000    0.0000 C.ar    1  UNL1        0.0000
     23 C           0.0000    0.0000    0.0000 C.3     1  UNL1        0.0000
     24 C           0.0000    0.0000    0.0000 C.3     1  UNL1        0.0000
     25 C           0.0000    0.0000    0.0000 C.3     1  UNL1        0.0000
     26 C           0.0000    0.0000    0.0000 C.3     1  UNL1        0.0000
     27 C           0.0000    0.0000    0.0000 C.3     1  UNL1        0.0000
     28 C           0.0000    0.0000    0.0000 C.3     1  UNL1        0.0000
     29 C           0.0000    0.0000    0.0000 C.3     1  UNL1        0.0000
     30 C           0.0000    0.0000    0.0000 C.3     1  UNL1        0.0000
     31 C           0.0000    0.0000    0.0000 C.ar    1  UNL1        0.0000
     32 N           0.0000    0.0000    0.0000 N.ar    1  UNL1        0.0000
     33 N           0.0000    0.0000    0.0000 N.ar    1  UNL1        0.0000
     34 C           0.0000    0.0000    0.0000 C.ar    1  UNL1        0.0000
     35 C           0.0000    0.0000    0.0000 C.ar    1  UNL1        0.0000
     36 H          -1.8018   -1.1379    1.1428 H       1  UNL1        0.0000
     37 H           0.7642   -2.1636    0.9298 H       1  UNL1        0.0000
     38 H          -1.2262    1.4258    1.7231 H       1  UNL1        0.0000
     39 H          -0.3558   -1.4290   -2.0009 H       1  UNL1        0.0000
     40 H          -1.0095   -0.0762    2.1701 H       1  UNL1        0.0000
     41 H           1.7626   -1.0304    1.3597 H       1  UNL1        0.0000
     42 H          -2.3492   -0.6104   -0.3100 H       1  UNL1        0.0000
     43 H          -0.7917    0.8365   -2.1503 H       1  UNL1        0.0000
     44 H           1.9713    1.3479   -0.3858 H       1  UNL1        0.0000
     45 H           1.8243   -1.5630   -0.2064 H       1  UNL1        0.0000
     46 H          -1.9954    0.8487   -0.9725 H       1  UNL1        0.0000
     47 H           0.4836   -0.1319   -2.3661 H       1  UNL1        0.0000
     48 H           1.9234    0.0598   -1.3936 H       1  UNL1        0.0000
     49 H           0.3128    1.1837    2.0325 H       1  UNL1        0.0000
     50 H          -0.3361   -1.5108    1.9053 H       1  UNL1        0.0000
     51 H          -1.4163   -1.8069   -0.8119 H       1  UNL1        0.0000
     52 H          -0.2936    2.2887    0.7571 H       1  UNL1        0.0000
     53 H           0.2738   -2.2539   -0.6763 H       1  UNL1        0.0000
     54 H          -0.7579    2.0150   -1.0570 H       1  UNL1        0.0000
     55 H           0.2738   -2.2539   -0.6763 H       1  UNL1        0.0000
     56 H           1.8184    0.5624    1.5235 H       1  UNL1        0.0000
     57 H           1.2670   -1.3582   -1.6930 H       1  UNL1        0.0000
     58 H          -1.6146   -0.4933   -1.7794 H       1  UNL1        0.0000
     59 H           0.6577   -0.3463    2.3232 H       1  UNL1        0.0000
     60 H          -1.7279    1.8188    0.2359 H       1  UNL1        0.0000
     61 H           0.8290    1.3598   -1.7478 H       1  UNL1        0.0000
     62 H           0.8290    1.3598   -1.7478 H       1  UNL1        0.0000
     63 H           0.6988    2.4129   -0.4843 H       1  UNL1        0.0000
     64 H           2.4241   -0.1050    0.1596 H       1  UNL1        0.0000
     65 H          -0.8406   -2.2833    0.5910 H       1  UNL1        0.0000
     66 H          -2.1661    0.4187    0.8984 H       1  UNL1        0.0000
     67 H           1.2520    1.8903    0.9378 H       1  UNL1        0.0000
     68 EU          0.0000    0.0000    0.0000 Eu      1  UNL1        0.0000
@<TRIPOS>BOND
     1     1     2    2
     2     2     3   am
     3     3     4    1
     4     3     5    1
     5     5     6    1
     6     6     7    1
     7     2     8    1
     8     8     9   ar
     9     9    10   ar
    10     8    11   ar
    11    11    12   ar
    12    12    13   ar
    13    10    13   ar
    14    13    14   ar
    15    14    15   ar
    16    15    16   ar
    17    16    17   ar
    18    12    17   ar
    19    17    18   ar
    20    18    19   ar
    21    19    20    1
    22    20    21   ar
    23    21    22   ar
    24    22    23    1
    25    23    24    1
    26    23    25    1
    27    23    26    1
    28    26    27    1
    29    27    28    1
    30    28    29    1
    31    28    30    1
    32    22    31   ar
    33    28    31    1
    34    31    32   ar
    35    32    33   ar
    36    20    33   ar
    37    19    34   ar
    38    34    35   ar
    39    16    35   ar
    40     4    36    1
    41     4    37    1
    42     4    38    1
    43     5    39    1
    44     5    40    1
    45     6    41    1
    46     6    42    1
    47     7    43    1
    48     7    44    1
    49     7    45    1
    50     9    46    1
    51    10    47    1
    52    14    48    1
    53    15    49    1
    54    24    50    1
    55    24    51    1
    56    24    52    1
    57    25    53    1
    58    25    54    1
    59    25    55    1
    60    26    56    1
    61    26    57    1
    62    27    58    1
    63    27    59    1
    64    29    60    1
    65    29    61    1
    66    29    62    1
    67    30    63    1
    68    30    64    1
    69    30    65    1
    70    34    66    1
    71    35    67    1
    72    68     1    1
    73    68    33    1
    74    68    18    1
    75    68    11    1
@<TRIPOS>MOLECULE
*****
 68 75 0 0 0
SMALL
GASTEIGER

@<TRIPOS>ATOM
      1 O           0.0000    0.0000    0.0000 O.2     1  UNL1        0.0000
      2 C           0.0000    0.0000    0.0000 C.2     1  UNL1        0.0000
      3 N           0.0000    0.0000    0.0000 N.am    1  UNL1        0.0000
      4 C           0.0000    0.0000    0.0000 C.3     1  UNL1        0.0000
      5 C           0.0000    0.0000    0.0000 C.3     1  UNL1        0.0000
      6 C           0.0000    0.0000    0.0000 C.3     1  UNL1        0.0000
      7 C           0.0000    0.0000    0.0000 C.3     1  UNL1        0.0000
      8 C           0.0000    0.0000    0.0000 C.ar    1  UNL1        0.0000
      9 C           0.0000    0.0000    0.0000 C.ar    1  UNL1        0.0000
     10 C           0.0000    0.0000    0.0000 C.ar    1  UNL1        0.0000
     11 N           0.0000    0.0000    0.0000 N.ar    1  UNL1        0.0000
     12 C           0.0000    0.0000    0.0000 C.ar    1  UNL1        0.0000
     13 C           0.0000    0.0000    0.0000 C.ar    1  UNL1        0.0000
     14 C           0.0000    0.0000    0.0000 C.ar    1  UNL1        0.0000
     15 C           0.0000    0.0000    0.0000 C.ar    1  UNL1        0.0000
     16 C           0.0000    0.0000    0.0000 C.ar    1  UNL1        0.0000
     17 C           0.0000    0.0000    0.0000 C.ar    1  UNL1        0.0000
     18 N           0.0000    0.0000    0.0000 N.ar    1  UNL1        0.0000
     19 C           0.0000    0.0000    0.0000 C.ar    1  UNL1        0.0000
     20 C           0.0000    0.0000    0.0000 C.ar    1  UNL1        0.0000
     21 N           0.0000    0.0000    0.0000 N.ar    1  UNL1        0.0000
     22 C           0.0000    0.0000    0.0000 C.ar    1  UNL1        0.0000
     23 C           0.0000    0.0000    0.0000 C.3     1  UNL1        0.0000
     24 C           0.0000    0.0000    0.0000 C.3     1  UNL1        0.0000
     25 C           0.0000    0.0000    0.0000 C.3     1  UNL1        0.0000
     26 C           0.0000    0.0000    0.0000 C.3     1  UNL1        0.0000
     27 C           0.0000    0.0000    0.0000 C.3     1  UNL1        0.0000
     28 C           0.0000    0.0000    0.0000 C.3     1  UNL1        0.0000
     29 C           0.0000    0.0000    0.0000 C.3     1  UNL1        0.0000
     30 C           0.0000    0.0000    0.0000 C.3     1  UNL1        0.0000
     31 C           0.0000    0.0000    0.0000 C.ar    1  UNL1        0.0000
     32 N           0.0000    0.0000    0.0000 N.ar    1  UNL1        0.0000
     33 N           0.0000    0.0000    0.0000 N.ar    1  UNL1        0.0000
     34 C           0.0000    0.0000    0.0000 C.ar    1  UNL1        0.0000
     35 C           0.0000    0.0000    0.0000 C.ar    1  UNL1        0.0000
     36 H          -1.8017   -1.1190    1.1645 H       1  UNL1        0.0000
     37 H           0.7542   -2.1554    0.9447 H       1  UNL1        0.0000
     38 H          -1.2250    1.4426    1.7123 H       1  UNL1        0.0000
     39 H          -0.3585   -1.4434   -1.9925 H       1  UNL1        0.0000
     40 H          -0.9960   -0.0513    2.1752 H       1  UNL1        0.0000
     41 H           1.7673   -1.0267    1.3582 H       1  UNL1        0.0000
     42 H          -2.3493   -0.6181   -0.3012 H       1  UNL1        0.0000
     43 H          -0.7933    0.8206   -2.1561 H       1  UNL1        0.0000
     44 H           1.9763    1.3410   -0.4083 H       1  UNL1        0.0000
     45 H           1.8189   -1.5670   -0.2001 H       1  UNL1        0.0000
     46 H          -1.9976    0.8361   -0.9823 H       1  UNL1        0.0000
     47 H           0.4811   -0.1495   -2.3655 H       1  UNL1        0.0000
     48 H           1.9185    0.0424   -1.3991 H       1  UNL1        0.0000
     49 H           0.3186    1.2075    2.0198 H       1  UNL1        0.0000
     50 H          -0.3413   -1.4947    1.9184 H       1  UNL1        0.0000
     51 H          -1.4193   -1.8128   -0.8051 H       1  UNL1        0.0000
     52 H          -0.2855    2.2897    0.7392 H       1  UNL1        0.0000
     53 H           0.2672   -2.2618   -0.6596 H       1  UNL1        0.0000
     54 H          -0.7470    2.0114   -1.0656 H       1  UNL1        0.0000
     55 H           0.2672   -2.2618   -0.6596 H       1  UNL1        0.0000
     56 H           1.8188    0.5751    1.5245 H       1  UNL1        0.0000
     57 H           1.2616   -1.3764   -1.6872 H       1  UNL1        0.0000
     58 H          -1.6150   -0.5034   -1.7780 H       1  UNL1        0.0000
     59 H           0.6650   -0.3329    2.3158 H       1  UNL1        0.0000
     60 H          -1.7228    1.8197    0.2147 H       1  UNL1        0.0000
     61 H           0.8275    1.3488   -1.7576 H       1  UNL1        0.0000
     62 H           0.8275    1.3488   -1.7576 H       1  UNL1        0.0000
     63 H           0.7133    2.4129   -0.4989 H       1  UNL1        0.0000
     64 H           2.4235   -0.1056    0.1551 H       1  UNL1        0.0000
     65 H          -0.8528   -2.2722    0.6073 H       1  UNL1        0.0000
     66 H          -2.1628    0.4273    0.8930 H       1  UNL1        0.0000
     67 H           1.2635    1.9006    0.9088 H       1  UNL1        0.0000
     68 EU          0.0000    0.0000    0.0000 Eu      1  UNL1        0.0000
@<TRIPOS>BOND
     1     1     2    2
     2     2     3   am
     3     3     4    1
     4     3     5    1
     5     5     6    1
     6     6     7    1
     7     2     8    1
     8     8     9   ar
     9     9    10   ar
    10     8    11   ar
    11    11    12   ar
    12    12    13   ar
    13    10    13   ar
    14    13    14   ar
    15    14    15   ar
    16    15    16   ar
    17    16    17   ar
    18    12    17   ar
    19    17    18   ar
    20    18    19   ar
    21    19    20    1
    22    20    21   ar
    23    21    22   ar
    24    22    23    1
    25    23    24    1
    26    23    25    1
    27    23    26    1
    28    26    27    1
    29    27    28    1
    30    28    29    1
    31    28    30    1
    32    22    31   ar
    33    28    31    1
    34    31    32   ar
    35    32    33   ar
    36    20    33   ar
    37    19    34   ar
    38    34    35   ar
    39    16    35   ar
    40     4    36    1
    41     4    37    1
    42     4    38    1
    43     5    39    1
    44     5    40    1
    45     6    41    1
    46     6    42    1
    47     7    43    1
    48     7    44    1
    49     7    45    1
    50     9    46    1
    51    10    47    1
    52    14    48    1
    53    15    49    1
    54    24    50    1
    55    24    51    1
    56    24    52    1
    57    25    53    1
    58    25    54    1
    59    25    55    1
    60    26    56    1
    61    26    57    1
    62    27    58    1
    63    27    59    1
    64    29    60    1
    65    29    61    1
    66    29    62    1
    67    30    63    1
    68    30    64    1
    69    30    65    1
    70    34    66    1
    71    35    67    1
    72    68     1    1
    73    68    33    1
    74    68    18    1
    75    68    11    1
@<TRIPOS>MOLECULE
*****
 68 75 0 0 0
SMALL
GASTEIGER

@<TRIPOS>ATOM
      1 O           0.0000    0.0000    0.0000 O.2     1  UNL1        0.0000
      2 C           0.0000    0.0000    0.0000 C.2     1  UNL1        0.0000
      3 N           0.0000    0.0000    0.0000 N.am    1  UNL1        0.0000
      4 C           0.0000    0.0000    0.0000 C.3     1  UNL1        0.0000
      5 C           0.0000    0.0000    0.0000 C.3     1  UNL1        0.0000
      6 C           0.0000    0.0000    0.0000 C.3     1  UNL1        0.0000
      7 C           0.0000    0.0000    0.0000 C.3     1  UNL1        0.0000
      8 C           0.0000    0.0000    0.0000 C.ar    1  UNL1        0.0000
      9 C           0.0000    0.0000    0.0000 C.ar    1  UNL1        0.0000
     10 C           0.0000    0.0000    0.0000 C.ar    1  UNL1        0.0000
     11 N           0.0000    0.0000    0.0000 N.ar    1  UNL1        0.0000
     12 C           0.0000    0.0000    0.0000 C.ar    1  UNL1        0.0000
     13 C           0.0000    0.0000    0.0000 C.ar    1  UNL1        0.0000
     14 C           0.0000    0.0000    0.0000 C.ar    1  UNL1        0.0000
     15 C           0.0000    0.0000    0.0000 C.ar    1  UNL1        0.0000
     16 C           0.0000    0.0000    0.0000 C.ar    1  UNL1        0.0000
     17 C           0.0000    0.0000    0.0000 C.ar    1  UNL1        0.0000
     18 N           0.0000    0.0000    0.0000 N.ar    1  UNL1        0.0000
     19 C           0.0000    0.0000    0.0000 C.ar    1  UNL1        0.0000
     20 C           0.0000    0.0000    0.0000 C.ar    1  UNL1        0.0000
     21 N           0.0000    0.0000    0.0000 N.ar    1  UNL1        0.0000
     22 C           0.0000    0.0000    0.0000 C.ar    1  UNL1        0.0000
     23 C           0.0000    0.0000    0.0000 C.3     1  UNL1        0.0000
     24 C           0.0000    0.0000    0.0000 C.3     1  UNL1        0.0000
     25 C           0.0000    0.0000    0.0000 C.3     1  UNL1        0.0000
     26 C           0.0000    0.0000    0.0000 C.3     1  UNL1        0.0000
     27 C           0.0000    0.0000    0.0000 C.3     1  UNL1        0.0000
     28 C           0.0000    0.0000    0.0000 C.3     1  UNL1        0.0000
     29 C           0.0000    0.0000    0.0000 C.3     1  UNL1        0.0000
     30 C           0.0000    0.0000    0.0000 C.3     1  UNL1        0.0000
     31 C           0.0000    0.0000    0.0000 C.ar    1  UNL1        0.0000
     32 N           0.0000    0.0000    0.0000 N.ar    1  UNL1        0.0000
     33 N           0.0000    0.0000    0.0000 N.ar    1  UNL1        0.0000
     34 C           0.0000    0.0000    0.0000 C.ar    1  UNL1        0.0000
     35 C           0.0000    0.0000    0.0000 C.ar    1  UNL1        0.0000
     36 H          -1.8077   -1.1231    1.1632 H       1  UNL1        0.0000
     37 H           0.7631   -2.1521    0.9471 H       1  UNL1        0.0000
     38 H          -1.2299    1.4548    1.7159 H       1  UNL1        0.0000
     39 H          -0.3641   -1.4432   -1.9882 H       1  UNL1        0.0000
     40 H          -1.0000   -0.0449    2.1700 H       1  UNL1        0.0000
     41 H           1.7682   -1.0175    1.3587 H       1  UNL1        0.0000
     42 H          -2.3379   -0.6242   -0.2868 H       1  UNL1        0.0000
     43 H          -0.7966    0.8188   -2.1550 H       1  UNL1        0.0000
     44 H           1.9754    1.3420   -0.4158 H       1  UNL1        0.0000
     45 H           1.8231   -1.5637   -0.2029 H       1  UNL1        0.0000
     46 H          -1.9988    0.8426   -0.9852 H       1  UNL1        0.0000
     47 H           0.4766   -0.1508   -2.3651 H       1  UNL1        0.0000
     48 H           1.9177    0.0373   -1.3997 H       1  UNL1        0.0000
     49 H           0.3101    1.2048    2.0172 H       1  UNL1        0.0000
     50 H          -0.3339   -1.4888    1.9187 H       1  UNL1        0.0000
     51 H          -1.4175   -1.8101   -0.7886 H       1  UNL1        0.0000
     52 H          -0.2887    2.2844    0.7329 H       1  UNL1        0.0000
     53 H           0.2707   -2.2600   -0.6568 H       1  UNL1        0.0000
     54 H          -0.7537    2.0111   -1.0649 H       1  UNL1        0.0000
     55 H           0.2707   -2.2600   -0.6568 H       1  UNL1        0.0000
     56 H           1.8140    0.5723    1.5191 H       1  UNL1        0.0000
     57 H           1.2575   -1.3784   -1.6909 H       1  UNL1        0.0000
     58 H          -1.6220   -0.5069   -1.7698 H       1  UNL1        0.0000
     59 H           0.6647   -0.3258    2.3201 H       1  UNL1        0.0000
     60 H          -1.7252    1.8142    0.2190 H       1  UNL1        0.0000
     61 H           0.8273    1.3457   -1.7603 H       1  UNL1        0.0000
     62 H           0.8273    1.3457   -1.7603 H       1  UNL1        0.0000
     63 H           0.6970    2.4043   -0.5042 H       1  UNL1        0.0000
     64 H           2.4261   -0.1013    0.1542 H       1  UNL1        0.0000
     65 H          -0.8555   -2.2754    0.6202 H       1  UNL1        0.0000
     66 H          -2.1598    0.4245    0.9055 H       1  UNL1        0.0000
     67 H           1.2508    1.8953    0.9022 H       1  UNL1        0.0000
     68 EU          0.0000    0.0000    0.0000 Eu      1  UNL1        0.0000
@<TRIPOS>BOND
     1     1     2    2
     2     2     3   am
     3     3     4    1
     4     3     5    1
     5     5     6    1
     6     6     7    1
     7     2     8    1
     8     8     9   ar
     9     9    10   ar
    10     8    11   ar
    11    11    12   ar
    12    12    13   ar
    13    10    13   ar
    14    13    14   ar
    15    14    15   ar
    16    15    16   ar
    17    16    17   ar
    18    12    17   ar
    19    17    18   ar
    20    18    19   ar
    21    19    20    1
    22    20    21   ar
    23    21    22   ar
    24    22    23    1
    25    23    24    1
    26    23    25    1
    27    23    26    1
    28    26    27    1
    29    27    28    1
    30    28    29    1
    31    28    30    1
    32    22    31   ar
    33    28    31    1
    34    31    32   ar
    35    32    33   ar
    36    20    33   ar
    37    19    34   ar
    38    34    35   ar
    39    16    35   ar
    40     4    36    1
    41     4    37    1
    42     4    38    1
    43     5    39    1
    44     5    40    1
    45     6    41    1
    46     6    42    1
    47     7    43    1
    48     7    44    1
    49     7    45    1
    50     9    46    1
    51    10    47    1
    52    14    48    1
    53    15    49    1
    54    24    50    1
    55    24    51    1
    56    24    52    1
    57    25    53    1
    58    25    54    1
    59    25    55    1
    60    26    56    1
    61    26    57    1
    62    27    58    1
    63    27    59    1
    64    29    60    1
    65    29    61    1
    66    29    62    1
    67    30    63    1
    68    30    64    1
    69    30    65    1
    70    34    66    1
    71    35    67    1
    72    68     1    1
    73    68    33    1
    74    68    18    1
    75    68    11    1
@<TRIPOS>MOLECULE
*****
 68 75 0 0 0
SMALL
GASTEIGER

@<TRIPOS>ATOM
      1 O           0.4494   -0.3356   -0.4032 O.2     1  UNL1        0.0000
      2 C          -0.1792   -0.5443   -0.1150 C.2     1  UNL1        0.0000
      3 N          -0.4610    0.3356    0.2703 N.am    1  UNL1        0.0000
      4 C          -0.2194    0.1977    0.0662 C.3     1  UNL1        0.0000
      5 C          -0.2756    0.0852    0.7118 C.3     1  UNL1        0.0000
      6 C           0.3811   -0.7317    0.5529 C.3     1  UNL1        0.0000
      7 C          -0.6787   -1.0963    0.2559 C.3     1  UNL1        0.0000
      8 C          -0.6969    0.7576   -0.3983 C.ar    1  UNL1        0.0000
      9 C          -0.1119   -0.0269    0.4264 C.ar    1  UNL1        0.0000
     10 C           0.0176    0.3526   -1.4162 C.ar    1  UNL1        0.0000
     11 N           0.3509    0.5943    0.0812 N.ar    1  UNL1        0.0000
     12 C          -0.4376    0.5954   -0.6670 C.ar    1  UNL1        0.0000
     13 C          -0.2547   -0.4666   -0.5003 C.ar    1  UNL1        0.0000
     14 C           0.7992    0.1609   -0.0318 C.ar    1  UNL1        0.0000
     15 C          -0.1618   -0.8578    0.0456 C.ar    1  UNL1        0.0000
     16 C          -0.3685    0.1898   -0.8849 C.ar    1  UNL1        0.0000
     17 C           0.3627   -0.6809   -0.2798 C.ar    1  UNL1        0.0000
     18 N          -0.2499   -0.3812   -0.2917 N.ar    1  UNL1        0.0000
     19 C          -0.2353    0.2042   -0.1954 C.ar    1  UNL1        0.0000
     20 C          -0.5137   -0.4150    0.6954 C.ar    1  UNL1        0.0000
     21 N          -0.4901    0.1872   -0.2732 N.ar    1  UNL1        0.0000
     22 C           0.0604   -0.1378   -0.5361 C.ar    1  UNL1        0.0000
     23 C          -0.5780   -0.6655   -1.2746 C.3     1  UNL1        0.0000
     24 C          -0.0826    0.4339   -0.1414 C.3     1  UNL1        0.0000
     25 C           0.7296   -0.1860   -0.8285 C.3     1  UNL1        0.0000
     26 C          -0.6583    0.2884    0.5000 C.3     1  UNL1        0.0000
     27 C          -0.5026    0.0059    0.1629 C.3     1  UNL1        0.0000
     28 C           0.5777   -0.4858    0.5244 C.3     1  UNL1        0.0000
     29 C          -0.0771    0.0672    0.4597 C.3     1  UNL1        0.0000
     30 C          -0.6267    0.2096    0.0378 C.3     1  UNL1        0.0000
     31 C           0.3615   -0.0307   -0.8635 C.ar    1  UNL1        0.0000
     32 N          -0.5584   -0.0922    0.7154 N.ar    1  UNL1        0.0000
     33 N           0.8254    0.5052   -0.3872 N.ar    1  UNL1        0.0000
     34 C          -0.2458   -0.2755    0.2600 C.ar    1  UNL1        0.0000
     35 C          -0.2723   -0.0991    0.2282 C.ar    1  UNL1        0.0000
     36 H          -1.5213   -0.1671    1.4657 H       1  UNL1        0.0000
     37 H           0.0108   -2.5206    0.6752 H       1  UNL1        0.0000
     38 H          -0.7035    2.0160    2.5050 H       1  UNL1        0.0000
     39 H           0.5836   -2.2498   -2.4545 H       1  UNL1        0.0000
     40 H          -1.6500   -0.6353    1.7954 H       1  UNL1        0.0000
     41 H           1.5612   -1.3840    0.9894 H       1  UNL1        0.0000
     42 H          -2.6804   -0.5794   -1.0249 H       1  UNL1        0.0000
     43 H          -0.7552    1.0232   -2.6512 H       1  UNL1        0.0000
     44 H           1.6987    1.5372   -0.7232 H       1  UNL1        0.0000
     45 H           1.9112   -1.1023    0.6290 H       1  UNL1        0.0000
     46 H          -3.0726    0.4111   -0.1470 H       1  UNL1        0.0000
     47 H           0.1642    0.3142   -2.5705 H       1  UNL1        0.0000
     48 H           1.4135   -0.3510   -1.4538 H       1  UNL1        0.0000
     49 H          -0.2735    0.4545    1.9949 H       1  UNL1        0.0000
     50 H          -0.2028   -1.5571    1.2770 H       1  UNL1        0.0000
     51 H          -1.0393   -2.2295   -1.7872 H       1  UNL1        0.0000
     52 H          -0.4062    2.2246   -0.3838 H       1  UNL1        0.0000
     53 H          -0.1567   -2.6624   -1.0982 H       1  UNL1        0.0000
     54 H          -0.9133    1.0715   -0.3126 H       1  UNL1        0.0000
     55 H           0.3719   -1.6170    0.0335 H       1  UNL1        0.0000
     56 H           1.5154    0.4961    0.9279 H       1  UNL1        0.0000
     57 H           0.8247   -1.6536   -2.2824 H       1  UNL1        0.0000
     58 H          -0.9355   -0.9320   -1.9382 H       1  UNL1        0.0000
     59 H           0.6824    0.1580    2.2732 H       1  UNL1        0.0000
     60 H          -2.2907    1.6385   -0.1474 H       1  UNL1        0.0000
     61 H           0.9669    0.9061   -2.0126 H       1  UNL1        0.0000
     62 H           1.0474    0.9485   -2.4113 H       1  UNL1        0.0000
     63 H           1.5861    2.6614   -0.6117 H       1  UNL1        0.0000
     64 H           3.1309   -0.1347   -0.0726 H       1  UNL1        0.0000
     65 H          -1.3334   -3.9204    0.9036 H       1  UNL1        0.0000
     66 H          -1.4661    0.9565    0.5068 H       1  UNL1        0.0000
     67 H           1.7549    2.1274    1.1418 H       1  UNL1        0.0000
     68 EU         -0.6150    0.4346   -0.1209 Eu      1  UNL1        0.0000
@<TRIPOS>BOND
     1     1     2    2
     2     2     3   am
     3     3     4    1
     4     3     5    1
     5     5     6    1
     6     6     7    1
     7     2     8    1
     8     8     9   ar
     9     9    10   ar
    10     8    11   ar
    11    11    12   ar
    12    12    13   ar
    13    10    13   ar
    14    13    14   ar
    15    14    15   ar
    16    15    16   ar
    17    16    17   ar
    18    12    17   ar
    19    17    18   ar
    20    18    19   ar
    21    19    20    1
    22    20    21   ar
    23    21    22   ar
    24    22    23    1
    25    23    24    1
    26    23    25    1
    27    23    26    1
    28    26    27    1
    29    27    28    1
    30    28    29    1
    31    28    30    1
    32    22    31   ar
    33    28    31    1
    34    31    32   ar
    35    32    33   ar
    36    20    33   ar
    37    19    34   ar
    38    34    35   ar
    39    16    35   ar
    40     4    36    1
    41     4    37    1
    42     4    38    1
    43     5    39    1
    44     5    40    1
    45     6    41    1
    46     6    42    1
    47     7    43    1
    48     7    44    1
    49     7    45    1
    50     9    46    1
    51    10    47    1
    52    14    48    1
    53    15    49    1
    54    24    50    1
    55    24    51    1
    56    24    52    1
    57    25    53    1
    58    25    54    1
    59    25    55    1
    60    26    56    1
    61    26    57    1
    62    27    58    1
    63    27    59    1
    64    29    60    1
    65    29    61    1
    66    29    62    1
    67    30    63    1
    68    30    64    1
    69    30    65    1
    70    34    66    1
    71    35    67    1
    72    68     1    1
    73    68    33    1
    74    68    18    1
    75    68    11    1
@<TRIPOS>MOLECULE
*****
 68 75 0 0 0
SMALL
GASTEIGER

@<TRIPOS>ATOM
      1 O           1.2847   -0.3705   -0.5486 O.2     1  UNL1        0.0000
      2 C          -0.4412   -0.5365   -0.7531 C.2     1  UNL1        0.0000
      3 N          -0.7916   -0.5718    1.6603 N.am    1  UNL1        0.0000
      4 C          -0.6965   -0.2006    1.6043 C.3     1  UNL1        0.0000
      5 C          -0.6275   -0.5923    1.7793 C.3     1  UNL1        0.0000
      6 C           0.6932   -1.8525    1.2798 C.3     1  UNL1        0.0000
      7 C          -1.5314   -1.5614    0.1747 C.3     1  UNL1        0.0000
      8 C           0.1964    1.6818    0.1728 C.ar    1  UNL1        0.0000
      9 C           0.9314    0.2786    1.0698 C.ar    1  UNL1        0.0000
     10 C           0.4004   -0.5106   -2.7702 C.ar    1  UNL1        0.0000
     11 N           0.2760    1.7520   -0.7454 N.ar    1  UNL1        0.0000
     12 C           0.4251    1.5800   -1.3387 C.ar    1  UNL1        0.0000
     13 C          -1.2855    0.0593   -1.8398 C.ar    1  UNL1        0.0000
     14 C           1.0399   -1.2562    0.2476 C.ar    1  UNL1        0.0000
     15 C          -0.3958   -2.1527    0.3449 C.ar    1  UNL1        0.0000
     16 C          -0.2831   -0.9778   -1.8625 C.ar    1  UNL1        0.0000
     17 C           1.2733   -1.0467   -1.4661 C.ar    1  UNL1        0.0000
     18 N          -0.0683   -0.7451    0.4801 N.ar    1  UNL1        0.0000
     19 C          -0.1115   -0.7533    0.4721 C.ar    1  UNL1        0.0000
     20 C          -0.1485   -0.7531    0.5291 C.ar    1  UNL1        0.0000
     21 N          -1.8074    0.3006   -0.6566 N.ar    1  UNL1        0.0000
     22 C          -0.2231    0.5217   -1.5024 C.ar    1  UNL1        0.0000
     23 C          -0.7990   -2.0354   -1.4579 C.3     1  UNL1        0.0000
     24 C          -0.9462    0.9645    0.3202 C.3     1  UNL1        0.0000
     25 C           1.1651    0.3473   -1.4863 C.3     1  UNL1        0.0000
     26 C          -1.3342    0.9894    0.4848 C.3     1  UNL1        0.0000
     27 C          -1.5019   -0.2260    0.4438 C.3     1  UNL1        0.0000
     28 C           1.7713   -0.7489    1.3984 C.3     1  UNL1        0.0000
     29 C          -0.0707    0.9671    1.4071 C.3     1  UNL1        0.0000
     30 C          -1.5316   -0.3058    0.4435 C.3     1  UNL1        0.0000
     31 C          -0.1863    0.5081   -1.3514 C.ar    1  UNL1        0.0000
     32 N          -0.7705    1.9684    1.1215 N.ar    1  UNL1        0.0000
     33 N           1.0018    1.5424    1.0413 N.ar    1  UNL1        0.0000
     34 C           0.0131   -0.0850    0.3146 C.ar    1  UNL1        0.0000
     35 C           0.2025    0.4973   -0.1552 C.ar    1  UNL1        0.0000
     36 H          -1.6638    0.0246    1.5360 H       1  UNL1        0.0000
     37 H           0.2315   -2.8714    0.8650 H       1  UNL1        0.0000
     38 H          -0.7034    2.0167    2.5079 H       1  UNL1        0.0000
     39 H           0.4799   -2.4653   -2.5176 H       1  UNL1        0.0000
     40 H          -1.7010   -0.8633    1.9420 H       1  UNL1        0.0000
     41 H           1.5404   -1.8206    1.0737 H       1  UNL1        0.0000
     42 H          -2.6876   -0.5860   -1.0284 H       1  UNL1        0.0000
     43 H          -0.7581    1.0269   -2.6557 H       1  UNL1        0.0000
     44 H           1.7060    1.5307   -0.7217 H       1  UNL1        0.0000
     45 H           2.1887   -1.1053    0.4008 H       1  UNL1        0.0000
     46 H          -3.2506   -0.2671    0.3510 H       1  UNL1        0.0000
     47 H           0.3981    0.3027   -2.7858 H       1  UNL1        0.0000
     48 H           2.1122   -0.3628   -1.7197 H       1  UNL1        0.0000
     49 H          -0.5118    0.4451    2.4958 H       1  UNL1        0.0000
     50 H          -0.4146   -1.6951    1.4388 H       1  UNL1        0.0000
     51 H          -1.0425   -2.2294   -1.7889 H       1  UNL1        0.0000
     52 H          -0.5230    2.5038   -0.4148 H       1  UNL1        0.0000
     53 H          -0.1536   -2.6640   -1.0969 H       1  UNL1        0.0000
     54 H          -1.2908    1.3540   -0.6761 H       1  UNL1        0.0000
     55 H           0.3958   -1.8324   -0.3627 H       1  UNL1        0.0000
     56 H           1.9354    0.5421    0.8810 H       1  UNL1        0.0000
     57 H           0.9583   -1.6621   -2.3188 H       1  UNL1        0.0000
     58 H          -1.3830   -1.0214   -2.3624 H       1  UNL1        0.0000
     59 H           0.6873    0.1603    2.3294 H       1  UNL1        0.0000
     60 H          -2.3010    1.6443   -0.1483 H       1  UNL1        0.0000
     61 H           0.9434    1.1313   -2.2622 H       1  UNL1        0.0000
     62 H           1.0683    1.0017   -2.4517 H       1  UNL1        0.0000
     63 H           1.5854    2.6689   -0.6109 H       1  UNL1        0.0000
     64 H           3.1306   -0.1345   -0.0726 H       1  UNL1        0.0000
     65 H          -1.3334   -3.9200    0.9035 H       1  UNL1        0.0000
     66 H          -1.3252    0.7571    2.0323 H       1  UNL1        0.0000
     67 H           1.8255    2.1886    1.1605 H       1  UNL1        0.0000
     68 EU          0.2834    1.6414   -0.7615 Eu      1  UNL1        0.0000
@<TRIPOS>BOND
     1     1     2    2
     2     2     3   am
     3     3     4    1
     4     3     5    1
     5     5     6    1
     6     6     7    1
     7     2     8    1
     8     8     9   ar
     9     9    10   ar
    10     8    11   ar
    11    11    12   ar
    12    12    13   ar
    13    10    13   ar
    14    13    14   ar
    15    14    15   ar
    16    15    16   ar
    17    16    17   ar
    18    12    17   ar
    19    17    18   ar
    20    18    19   ar
    21    19    20    1
    22    20    21   ar
    23    21    22   ar
    24    22    23    1
    25    23    24    1
    26    23    25    1
    27    23    26    1
    28    26    27    1
    29    27    28    1
    30    28    29    1
    31    28    30    1
    32    22    31   ar
    33    28    31    1
    34    31    32   ar
    35    32    33   ar
    36    20    33   ar
    37    19    34   ar
    38    34    35   ar
    39    16    35   ar
    40     4    36    1
    41     4    37    1
    42     4    38    1
    43     5    39    1
    44     5    40    1
    45     6    41    1
    46     6    42    1
    47     7    43    1
    48     7    44    1
    49     7    45    1
    50     9    46    1
    51    10    47    1
    52    14    48    1
    53    15    49    1
    54    24    50    1
    55    24    51    1
    56    24    52    1
    57    25    53    1
    58    25    54    1
    59    25    55    1
    60    26    56    1
    61    26    57    1
    62    27    58    1
    63    27    59    1
    64    29    60    1
    65    29    61    1
    66    29    62    1
    67    30    63    1
    68    30    64    1
    69    30    65    1
    70    34    66    1
    71    35    67    1
    72    68     1    1
    73    68    33    1
    74    68    18    1
    75    68    11    1
@<TRIPOS>MOLECULE
*****
 68 75 0 0 0
SMALL
GASTEIGER

@<TRIPOS>ATOM
      1 O           1.5263   -0.5235   -0.6374 O.2     1  UNL1        0.0000
      2 C          -0.9256   -0.2118   -0.7705 C.2     1  UNL1        0.0000
      3 N          -1.2562   -0.8275    2.2822 N.am    1  UNL1        0.0000
      4 C          -1.1681   -0.3516    2.3655 C.3     1  UNL1        0.0000
      5 C          -0.8393   -0.8562    2.5840 C.3     1  UNL1        0.0000
      6 C           0.8880   -2.0832    2.0110 C.3     1  UNL1        0.0000
      7 C          -1.7752   -2.1755    0.0008 C.3     1  UNL1        0.0000
      8 C           0.0499    2.1419    0.3148 C.ar    1  UNL1        0.0000
      9 C           1.2440    0.8802    0.7545 C.ar    1  UNL1        0.0000
     10 C          -0.0810   -0.2439   -3.7804 C.ar    1  UNL1        0.0000
     11 N           0.4895    2.3018   -0.3100 N.ar    1  UNL1        0.0000
     12 C           0.5382    2.0449   -2.0779 C.ar    1  UNL1        0.0000
     13 C          -1.5068    0.4175   -3.0839 C.ar    1  UNL1        0.0000
     14 C           0.1792   -2.3033    0.1811 C.ar    1  UNL1        0.0000
     15 C           0.0629   -2.3444    0.1716 C.ar    1  UNL1        0.0000
     16 C           0.1878   -1.3769   -1.9938 C.ar    1  UNL1        0.0000
     17 C           1.7254   -1.1638   -1.8180 C.ar    1  UNL1        0.0000
     18 N           0.5421   -0.5163    1.2939 N.ar    1  UNL1        0.0000
     19 C          -0.1419   -0.6229    0.9192 C.ar    1  UNL1        0.0000
     20 C          -0.2201   -0.5941    0.9469 C.ar    1  UNL1        0.0000
     21 N          -1.9898    0.7859   -1.0764 N.ar    1  UNL1        0.0000
     22 C          -0.2693    0.5730   -2.1034 C.ar    1  UNL1        0.0000
     23 C          -0.8588   -2.6779   -1.4903 C.3     1  UNL1        0.0000
     24 C          -1.3741    1.1595    0.5280 C.3     1  UNL1        0.0000
     25 C           1.6181    0.5363   -1.7322 C.3     1  UNL1        0.0000
     26 C          -1.4178    1.1071    0.5653 C.3     1  UNL1        0.0000
     27 C          -2.1225   -0.4451    0.4568 C.3     1  UNL1        0.0000
     28 C           2.2370   -0.8731    1.4247 C.3     1  UNL1        0.0000
     29 C          -0.1878    1.0157    1.8297 C.3     1  UNL1        0.0000
     30 C          -2.1132   -0.5216    0.4564 C.3     1  UNL1        0.0000
     31 C          -0.1922    0.5887   -1.9905 C.ar    1  UNL1        0.0000
     32 N          -1.2865    2.9228    0.8312 N.ar    1  UNL1        0.0000
     33 N           0.8428    2.1864    1.7092 N.ar    1  UNL1        0.0000
     34 C          -0.0521   -0.3442    0.6913 C.ar    1  UNL1        0.0000
     35 C           0.2461    0.7205   -0.4652 C.ar    1  UNL1        0.0000
     36 H          -1.9654    0.0755    1.8918 H       1  UNL1        0.0000
     37 H           0.4451   -3.4390    1.2059 H       1  UNL1        0.0000
     38 H          -0.7200    2.1729    2.6390 H       1  UNL1        0.0000
     39 H           0.3642   -2.7911   -2.5770 H       1  UNL1        0.0000
     40 H          -2.0722   -1.4004    2.0576 H       1  UNL1        0.0000
     41 H           1.6340   -2.2664    1.2897 H       1  UNL1        0.0000
     42 H          -2.7284   -0.6587   -1.0629 H       1  UNL1        0.0000
     43 H          -0.6338    1.6184   -3.1034 H       1  UNL1        0.0000
     44 H           2.0149    1.4870   -0.6975 H       1  UNL1        0.0000
     45 H           2.4395   -1.3467    0.0578 H       1  UNL1        0.0000
     46 H          -3.1021   -1.3059    1.4715 H       1  UNL1        0.0000
     47 H           0.2439    0.1362   -3.9029 H       1  UNL1        0.0000
     48 H           3.2177   -0.7419   -1.1947 H       1  UNL1        0.0000
     49 H          -0.6584    0.6877    3.2659 H       1  UNL1        0.0000
     50 H          -0.6701   -2.0692    1.5559 H       1  UNL1        0.0000
     51 H          -1.1933   -2.2952   -1.7880 H       1  UNL1        0.0000
     52 H          -0.8909    2.9892   -0.6088 H       1  UNL1        0.0000
     53 H          -0.0938   -2.7959   -1.2509 H       1  UNL1        0.0000
     54 H          -1.0752    1.8112   -1.0175 H       1  UNL1        0.0000
     55 H           0.5511   -2.4714   -1.2193 H       1  UNL1        0.0000
     56 H           2.6476    0.6412    0.8694 H       1  UNL1        0.0000
     57 H           1.1705   -1.7654   -3.0162 H       1  UNL1        0.0000
     58 H          -1.4917   -1.1601   -2.4296 H       1  UNL1        0.0000
     59 H           0.8162    0.1010    2.4963 H       1  UNL1        0.0000
     60 H          -2.5685    1.8497   -0.2034 H       1  UNL1        0.0000
     61 H           1.1361    1.0853   -3.0153 H       1  UNL1        0.0000
     62 H           1.1741    1.1015   -3.0124 H       1  UNL1        0.0000
     63 H           1.7646    2.9005   -0.6873 H       1  UNL1        0.0000
     64 H           3.1487   -0.1114   -0.0660 H       1  UNL1        0.0000
     65 H          -1.3391   -3.8997    0.9013 H       1  UNL1        0.0000
     66 H          -1.6253    1.2509    2.2584 H       1  UNL1        0.0000
     67 H           2.2238    2.3801    1.1242 H       1  UNL1        0.0000
     68 EU          1.2644    2.1324    0.3087 Eu      1  UNL1        0.0000
@<TRIPOS>BOND
     1     1     2    2
     2     2     3   am
     3     3     4    1
     4     3     5    1
     5     5     6    1
     6     6     7    1
     7     2     8    1
     8     8     9   ar
     9     9    10   ar
    10     8    11   ar
    11    11    12   ar
    12    12    13   ar
    13    10    13   ar
    14    13    14   ar
    15    14    15   ar
    16    15    16   ar
    17    16    17   ar
    18    12    17   ar
    19    17    18   ar
    20    18    19   ar
    21    19    20    1
    22    20    21   ar
    23    21    22   ar
    24    22    23    1
    25    23    24    1
    26    23    25    1
    27    23    26    1
    28    26    27    1
    29    27    28    1
    30    28    29    1
    31    28    30    1
    32    22    31   ar
    33    28    31    1
    34    31    32   ar
    35    32    33   ar
    36    20    33   ar
    37    19    34   ar
    38    34    35   ar
    39    16    35   ar
    40     4    36    1
    41     4    37    1
    42     4    38    1
    43     5    39    1
    44     5    40    1
    45     6    41    1
    46     6    42    1
    47     7    43    1
    48     7    44    1
    49     7    45    1
    50     9    46    1
    51    10    47    1
    52    14    48    1
    53    15    49    1
    54    24    50    1
    55    24    51    1
    56    24    52    1
    57    25    53    1
    58    25    54    1
    59    25    55    1
    60    26    56    1
    61    26    57    1
    62    27    58    1
    63    27    59    1
    64    29    60    1
    65    29    61    1
    66    29    62    1
    67    30    63    1
    68    30    64    1
    69    30    65    1
    70    34    66    1
    71    35    67    1
    72    68     1    1
    73    68    33    1
    74    68    18    1
    75    68    11    1
@<TRIPOS>MOLECULE
*****
 68 75 0 0 0
SMALL
GASTEIGER

@<TRIPOS>ATOM
      1 O           1.5248   -0.5223   -0.6404 O.2     1  UNL1        0.0000
      2 C          -0.9267   -0.2077   -0.7684 C.2     1  UNL1        0.0000
      3 N          -1.2606   -0.8309    2.2863 N.am    1  UNL1        0.0000
      4 C          -1.1727   -0.3512    2.3717 C.3     1  UNL1        0.0000
      5 C          -0.8408   -0.8604    2.5901 C.3     1  UNL1        0.0000
      6 C           0.8884   -2.0851    2.0137 C.3     1  UNL1        0.0000
      7 C          -1.7757   -2.1788    0.0003 C.3     1  UNL1        0.0000
      8 C           0.0499    2.1427    0.3191 C.ar    1  UNL1        0.0000
      9 C           1.2455    0.8812    0.7559 C.ar    1  UNL1        0.0000
     10 C          -0.0827   -0.2441   -3.7895 C.ar    1  UNL1        0.0000
     11 N           0.4897    2.3073   -0.3048 N.ar    1  UNL1        0.0000
     12 C           0.5373    2.0470   -2.0842 C.ar    1  UNL1        0.0000
     13 C          -1.5103    0.4207   -3.0954 C.ar    1  UNL1        0.0000
     14 C           0.1664   -2.3044    0.1787 C.ar    1  UNL1        0.0000
     15 C           0.0686   -2.3434    0.1768 C.ar    1  UNL1        0.0000
     16 C           0.1951   -1.3784   -1.9948 C.ar    1  UNL1        0.0000
     17 C           1.7257   -1.1642   -1.8225 C.ar    1  UNL1        0.0000
     18 N           0.5473   -0.5143    1.2998 N.ar    1  UNL1        0.0000
     19 C          -0.1420   -0.6217    0.9248 C.ar    1  UNL1        0.0000
     20 C          -0.2200   -0.5923    0.9514 C.ar    1  UNL1        0.0000
     21 N          -1.9925    0.7889   -1.0808 N.ar    1  UNL1        0.0000
     22 C          -0.2714    0.5714   -2.1098 C.ar    1  UNL1        0.0000
     23 C          -0.8593   -2.6798   -1.4923 C.3     1  UNL1        0.0000
     24 C          -1.3767    1.1601    0.5289 C.3     1  UNL1        0.0000
     25 C           1.6224    0.5392   -1.7351 C.3     1  UNL1        0.0000
     26 C          -1.4192    1.1075    0.5651 C.3     1  UNL1        0.0000
     27 C          -2.1271   -0.4469    0.4579 C.3     1  UNL1        0.0000
     28 C           2.2413   -0.8743    1.4241 C.3     1  UNL1        0.0000
     29 C          -0.1879    1.0169    1.8330 C.3     1  UNL1        0.0000
     30 C          -2.1171   -0.5235    0.4575 C.3     1  UNL1        0.0000
     31 C          -0.1933    0.5873   -1.9960 C.ar    1  UNL1        0.0000
     32 N          -1.2915    2.9292    0.8279 N.ar    1  UNL1        0.0000
     33 N           0.8431    2.1903    1.7146 N.ar    1  UNL1        0.0000
     34 C          -0.0532   -0.3443    0.6964 C.ar    1  UNL1        0.0000
     35 C           0.2499    0.7235   -0.4697 C.ar    1  UNL1        0.0000
     36 H          -1.9669    0.0750    1.8948 H       1  UNL1        0.0000
     37 H           0.4454   -3.4423    1.2083 H       1  UNL1        0.0000
     38 H          -0.7202    2.1759    2.6411 H       1  UNL1        0.0000
     39 H           0.3645   -2.7939   -2.5787 H       1  UNL1        0.0000
     40 H          -2.0699   -1.4065    2.0604 H       1  UNL1        0.0000
     41 H           1.6334   -2.2687    1.2898 H       1  UNL1        0.0000
     42 H          -2.7288   -0.6599   -1.0641 H       1  UNL1        0.0000
     43 H          -0.6341    1.6238   -3.1071 H       1  UNL1        0.0000
     44 H           2.0165    1.4882   -0.6952 H       1  UNL1        0.0000
     45 H           2.4408   -1.3508    0.0552 H       1  UNL1        0.0000
     46 H          -3.1028   -1.3152    1.4786 H       1  UNL1        0.0000
     47 H           0.2419    0.1346   -3.9132 H       1  UNL1        0.0000
     48 H           3.2234   -0.7481   -1.1903 H       1  UNL1        0.0000
     49 H          -0.6585    0.6897    3.2706 H       1  UNL1        0.0000
     50 H          -0.6723   -2.0719    1.5569 H       1  UNL1        0.0000
     51 H          -1.1952   -2.2956   -1.7876 H       1  UNL1        0.0000
     52 H          -0.8920    2.9938   -0.6107 H       1  UNL1        0.0000
     53 H          -0.0930   -2.7986   -1.2541 H       1  UNL1        0.0000
     54 H          -1.0719    1.8130   -1.0196 H       1  UNL1        0.0000
     55 H           0.5560   -2.4787   -1.2217 H       1  UNL1        0.0000
     56 H           2.6521    0.6424    0.8713 H       1  UNL1        0.0000
     57 H           1.1715   -1.7671   -3.0228 H       1  UNL1        0.0000
     58 H          -1.4927   -1.1590   -2.4299 H       1  UNL1        0.0000
     59 H           0.8191    0.1019    2.5025 H       1  UNL1        0.0000
     60 H          -2.5718    1.8527   -0.2036 H       1  UNL1        0.0000
     61 H           1.1371    1.0844   -3.0208 H       1  UNL1        0.0000
     62 H           1.1750    1.1008   -3.0180 H       1  UNL1        0.0000
     63 H           1.7669    2.9027   -0.6891 H       1  UNL1        0.0000
     64 H           3.1488   -0.1110   -0.0654 H       1  UNL1        0.0000
     65 H          -1.3393   -3.8991    0.9013 H       1  UNL1        0.0000
     66 H          -1.6283    1.2542    2.2598 H       1  UNL1        0.0000
     67 H           2.2281    2.3810    1.1258 H       1  UNL1        0.0000
     68 EU          1.2689    2.1366    0.3150 Eu      1  UNL1        0.0000
@<TRIPOS>BOND
     1     1     2    2
     2     2     3   am
     3     3     4    1
     4     3     5    1
     5     5     6    1
     6     6     7    1
     7     2     8    1
     8     8     9   ar
     9     9    10   ar
    10     8    11   ar
    11    11    12   ar
    12    12    13   ar
    13    10    13   ar
    14    13    14   ar
    15    14    15   ar
    16    15    16   ar
    17    16    17   ar
    18    12    17   ar
    19    17    18   ar
    20    18    19   ar
    21    19    20    1
    22    20    21   ar
    23    21    22   ar
    24    22    23    1
    25    23    24    1
    26    23    25    1
    27    23    26    1
    28    26    27    1
    29    27    28    1
    30    28    29    1
    31    28    30    1
    32    22    31   ar
    33    28    31    1
    34    31    32   ar
    35    32    33   ar
    36    20    33   ar
    37    19    34   ar
    38    34    35   ar
    39    16    35   ar
    40     4    36    1
    41     4    37    1
    42     4    38    1
    43     5    39    1
    44     5    40    1
    45     6    41    1
    46     6    42    1
    47     7    43    1
    48     7    44    1
    49     7    45    1
    50     9    46    1
    51    10    47    1
    52    14    48    1
    53    15    49    1
    54    24    50    1
    55    24    51    1
    56    24    52    1
    57    25    53    1
    58    25    54    1
    59    25    55    1
    60    26    56    1
    61    26    57    1
    62    27    58    1
    63    27    59    1
    64    29    60    1
    65    29    61    1
    66    29    62    1
    67    30    63    1
    68    30    64    1
    69    30    65    1
    70    34    66    1
    71    35    67    1
    72    68     1    1
    73    68    33    1
    74    68    18    1
    75    68    11    1
@<TRIPOS>MOLECULE
*****
 68 75 0 0 0
SMALL
GASTEIGER

@<TRIPOS>ATOM
      1 O           1.5248   -0.5223   -0.6404 O.2     1  UNL1        0.0000
      2 C          -0.9267   -0.2077   -0.7684 C.2     1  UNL1        0.0000
      3 N          -1.2606   -0.8309    2.2863 N.am    1  UNL1        0.0000
      4 C          -1.1727   -0.3512    2.3717 C.3     1  UNL1        0.0000
      5 C          -0.8408   -0.8604    2.5901 C.3     1  UNL1        0.0000
      6 C           0.8884   -2.0851    2.0137 C.3     1  UNL1        0.0000
      7 C          -1.7757   -2.1788    0.0003 C.3     1  UNL1        0.0000
      8 C           0.0499    2.1427    0.3191 C.ar    1  UNL1        0.0000
      9 C           1.2455    0.8812    0.7559 C.ar    1  UNL1        0.0000
     10 C          -0.0827   -0.2441   -3.7895 C.ar    1  UNL1        0.0000
     11 N           0.4897    2.3073   -0.3048 N.ar    1  UNL1        0.0000
     12 C           0.5373    2.0470   -2.0842 C.ar    1  UNL1        0.0000
     13 C          -1.5103    0.4207   -3.0954 C.ar    1  UNL1        0.0000
     14 C           0.1664   -2.3044    0.1787 C.ar    1  UNL1        0.0000
     15 C           0.0686   -2.3434    0.1768 C.ar    1  UNL1        0.0000
     16 C           0.1951   -1.3784   -1.9948 C.ar    1  UNL1        0.0000
     17 C           1.7257   -1.1642   -1.8225 C.ar    1  UNL1        0.0000
     18 N           0.5473   -0.5143    1.2998 N.ar    1  UNL1        0.0000
     19 C          -0.1420   -0.6217    0.9248 C.ar    1  UNL1        0.0000
     20 C          -0.2200   -0.5923    0.9514 C.ar    1  UNL1        0.0000
     21 N          -1.9925    0.7889   -1.0808 N.ar    1  UNL1        0.0000
     22 C          -0.2714    0.5714   -2.1098 C.ar    1  UNL1        0.0000
     23 C          -0.8593   -2.6798   -1.4923 C.3     1  UNL1        0.0000
     24 C          -1.3767    1.1601    0.5289 C.3     1  UNL1        0.0000
     25 C           1.6224    0.5392   -1.7351 C.3     1  UNL1        0.0000
     26 C          -1.4192    1.1075    0.5651 C.3     1  UNL1        0.0000
     27 C          -2.1271   -0.4469    0.4579 C.3     1  UNL1        0.0000
     28 C           2.2413   -0.8743    1.4241 C.3     1  UNL1        0.0000
     29 C          -0.1879    1.0169    1.8330 C.3     1  UNL1        0.0000
     30 C          -2.1171   -0.5235    0.4575 C.3     1  UNL1        0.0000
     31 C          -0.1933    0.5873   -1.9960 C.ar    1  UNL1        0.0000
     32 N          -1.2915    2.9292    0.8279 N.ar    1  UNL1        0.0000
     33 N           0.8431    2.1903    1.7146 N.ar    1  UNL1        0.0000
     34 C          -0.0532   -0.3443    0.6964 C.ar    1  UNL1        0.0000
     35 C           0.2499    0.7235   -0.4697 C.ar    1  UNL1        0.0000
     36 H          -1.9669    0.0750    1.8948 H       1  UNL1        0.0000
     37 H           0.4454   -3.4423    1.2083 H       1  UNL1        0.0000
     38 H          -0.7202    2.1759    2.6411 H       1  UNL1        0.0000
     39 H           0.3645   -2.7939   -2.5787 H       1  UNL1        0.0000
     40 H          -2.0699   -1.4065    2.0604 H       1  UNL1        0.0000
     41 H           1.6334   -2.2687    1.2898 H       1  UNL1        0.0000
     42 H          -2.7288   -0.6599   -1.0641 H       1  UNL1        0.0000
     43 H          -0.6341    1.6238   -3.1071 H       1  UNL1        0.0000
     44 H           2.0165    1.4882   -0.6952 H       1  UNL1        0.0000
     45 H           2.4408   -1.3508    0.0552 H       1  UNL1        0.0000
     46 H          -3.1028   -1.3152    1.4786 H       1  UNL1        0.0000
     47 H           0.2419    0.1346   -3.9132 H       1  UNL1        0.0000
     48 H           3.2234   -0.7481   -1.1903 H       1  UNL1        0.0000
     49 H          -0.6585    0.6897    3.2706 H       1  UNL1        0.0000
     50 H          -0.6723   -2.0719    1.5569 H       1  UNL1        0.0000
     51 H          -1.1952   -2.2956   -1.7876 H       1  UNL1        0.0000
     52 H          -0.8920    2.9938   -0.6107 H       1  UNL1        0.0000
     53 H          -0.0930   -2.7986   -1.2541 H       1  UNL1        0.0000
     54 H          -1.0719    1.8130   -1.0196 H       1  UNL1        0.0000
     55 H           0.5560   -2.4787   -1.2217 H       1  UNL1        0.0000
     56 H           2.6521    0.6424    0.8713 H       1  UNL1        0.0000
     57 H           1.1715   -1.7671   -3.0228 H       1  UNL1        0.0000
     58 H          -1.4927   -1.1590   -2.4299 H       1  UNL1        0.0000
     59 H           0.8191    0.1019    2.5025 H       1  UNL1        0.0000
     60 H          -2.5718    1.8527   -0.2036 H       1  UNL1        0.0000
     61 H           1.1371    1.0844   -3.0208 H       1  UNL1        0.0000
     62 H           1.1750    1.1008   -3.0180 H       1  UNL1        0.0000
     63 H           1.7669    2.9027   -0.6891 H       1  UNL1        0.0000
     64 H           3.1488   -0.1110   -0.0654 H       1  UNL1        0.0000
     65 H          -1.3393   -3.8991    0.9013 H       1  UNL1        0.0000
     66 H          -1.6283    1.2542    2.2598 H       1  UNL1        0.0000
     67 H           2.2281    2.3810    1.1258 H       1  UNL1        0.0000
     68 EU          1.2689    2.1366    0.3150 Eu      1  UNL1        0.0000
@<TRIPOS>BOND
     1     1     2    2
     2     2     3   am
     3     3     4    1
     4     3     5    1
     5     5     6    1
     6     6     7    1
     7     2     8    1
     8     8     9   ar
     9     9    10   ar
    10     8    11   ar
    11    11    12   ar
    12    12    13   ar
    13    10    13   ar
    14    13    14   ar
    15    14    15   ar
    16    15    16   ar
    17    16    17   ar
    18    12    17   ar
    19    17    18   ar
    20    18    19   ar
    21    19    20    1
    22    20    21   ar
    23    21    22   ar
    24    22    23    1
    25    23    24    1
    26    23    25    1
    27    23    26    1
    28    26    27    1
    29    27    28    1
    30    28    29    1
    31    28    30    1
    32    22    31   ar
    33    28    31    1
    34    31    32   ar
    35    32    33   ar
    36    20    33   ar
    37    19    34   ar
    38    34    35   ar
    39    16    35   ar
    40     4    36    1
    41     4    37    1
    42     4    38    1
    43     5    39    1
    44     5    40    1
    45     6    41    1
    46     6    42    1
    47     7    43    1
    48     7    44    1
    49     7    45    1
    50     9    46    1
    51    10    47    1
    52    14    48    1
    53    15    49    1
    54    24    50    1
    55    24    51    1
    56    24    52    1
    57    25    53    1
    58    25    54    1
    59    25    55    1
    60    26    56    1
    61    26    57    1
    62    27    58    1
    63    27    59    1
    64    29    60    1
    65    29    61    1
    66    29    62    1
    67    30    63    1
    68    30    64    1
    69    30    65    1
    70    34    66    1
    71    35    67    1
    72    68     1    1
    73    68    33    1
    74    68    18    1
    75    68    11    1
@<TRIPOS>MOLECULE
*****
 68 75 0 0 0
SMALL
GASTEIGER

@<TRIPOS>ATOM
      1 O           1.5248   -0.5223   -0.6404 O.2     1  UNL1        0.0000
      2 C          -0.9267   -0.2077   -0.7684 C.2     1  UNL1        0.0000
      3 N          -1.2606   -0.8309    2.2863 N.am    1  UNL1        0.0000
      4 C          -1.1727   -0.3512    2.3717 C.3     1  UNL1        0.0000
      5 C          -0.8408   -0.8604    2.5901 C.3     1  UNL1        0.0000
      6 C           0.8884   -2.0851    2.0137 C.3     1  UNL1        0.0000
      7 C          -1.7757   -2.1788    0.0003 C.3     1  UNL1        0.0000
      8 C           0.0499    2.1427    0.3191 C.ar    1  UNL1        0.0000
      9 C           1.2455    0.8812    0.7559 C.ar    1  UNL1        0.0000
     10 C          -0.0827   -0.2441   -3.7895 C.ar    1  UNL1        0.0000
     11 N           0.4897    2.3073   -0.3048 N.ar    1  UNL1        0.0000
     12 C           0.5373    2.0470   -2.0842 C.ar    1  UNL1        0.0000
     13 C          -1.5103    0.4207   -3.0954 C.ar    1  UNL1        0.0000
     14 C           0.1664   -2.3044    0.1787 C.ar    1  UNL1        0.0000
     15 C           0.0686   -2.3434    0.1768 C.ar    1  UNL1        0.0000
     16 C           0.1951   -1.3784   -1.9948 C.ar    1  UNL1        0.0000
     17 C           1.7257   -1.1642   -1.8225 C.ar    1  UNL1        0.0000
     18 N           0.5473   -0.5143    1.2998 N.ar    1  UNL1        0.0000
     19 C          -0.1420   -0.6217    0.9248 C.ar    1  UNL1        0.0000
     20 C          -0.2200   -0.5923    0.9514 C.ar    1  UNL1        0.0000
     21 N          -1.9925    0.7889   -1.0808 N.ar    1  UNL1        0.0000
     22 C          -0.2714    0.5714   -2.1098 C.ar    1  UNL1        0.0000
     23 C          -0.8593   -2.6798   -1.4923 C.3     1  UNL1        0.0000
     24 C          -1.3767    1.1601    0.5289 C.3     1  UNL1        0.0000
     25 C           1.6224    0.5392   -1.7351 C.3     1  UNL1        0.0000
     26 C          -1.4192    1.1075    0.5651 C.3     1  UNL1        0.0000
     27 C          -2.1271   -0.4469    0.4579 C.3     1  UNL1        0.0000
     28 C           2.2413   -0.8743    1.4241 C.3     1  UNL1        0.0000
     29 C          -0.1879    1.0169    1.8330 C.3     1  UNL1        0.0000
     30 C          -2.1171   -0.5235    0.4575 C.3     1  UNL1        0.0000
     31 C          -0.1933    0.5873   -1.9960 C.ar    1  UNL1        0.0000
     32 N          -1.2915    2.9292    0.8279 N.ar    1  UNL1        0.0000
     33 N           0.8431    2.1903    1.7146 N.ar    1  UNL1        0.0000
     34 C          -0.0532   -0.3443    0.6964 C.ar    1  UNL1        0.0000
     35 C           0.2499    0.7235   -0.4697 C.ar    1  UNL1        0.0000
     36 H          -1.9669    0.0750    1.8948 H       1  UNL1        0.0000
     37 H           0.4454   -3.4423    1.2083 H       1  UNL1        0.0000
     38 H          -0.7202    2.1759    2.6411 H       1  UNL1        0.0000
     39 H           0.3645   -2.7939   -2.5787 H       1  UNL1        0.0000
     40 H          -2.0699   -1.4065    2.0604 H       1  UNL1        0.0000
     41 H           1.6334   -2.2687    1.2898 H       1  UNL1        0.0000
     42 H          -2.7288   -0.6599   -1.0641 H       1  UNL1        0.0000
     43 H          -0.6341    1.6238   -3.1071 H       1  UNL1        0.0000
     44 H           2.0165    1.4882   -0.6952 H       1  UNL1        0.0000
     45 H           2.4408   -1.3508    0.0552 H       1  UNL1        0.0000
     46 H          -3.1028   -1.3152    1.4786 H       1  UNL1        0.0000
     47 H           0.2419    0.1346   -3.9132 H       1  UNL1        0.0000
     48 H           3.2234   -0.7481   -1.1903 H       1  UNL1        0.0000
     49 H          -0.6585    0.6897    3.2706 H       1  UNL1        0.0000
     50 H          -0.6723   -2.0719    1.5569 H       1  UNL1        0.0000
     51 H          -1.1952   -2.2956   -1.7876 H       1  UNL1        0.0000
     52 H          -0.8920    2.9938   -0.6107 H       1  UNL1        0.0000
     53 H          -0.0930   -2.7986   -1.2541 H       1  UNL1        0.0000
     54 H          -1.0719    1.8130   -1.0196 H       1  UNL1        0.0000
     55 H           0.5560   -2.4787   -1.2217 H       1  UNL1        0.0000
     56 H           2.6521    0.6424    0.8713 H       1  UNL1        0.0000
     57 H           1.1715   -1.7671   -3.0228 H       1  UNL1        0.0000
     58 H          -1.4927   -1.1590   -2.4299 H       1  UNL1        0.0000
     59 H           0.8191    0.1019    2.5025 H       1  UNL1        0.0000
     60 H          -2.5718    1.8527   -0.2036 H       1  UNL1        0.0000
     61 H           1.1371    1.0844   -3.0208 H       1  UNL1        0.0000
     62 H           1.1750    1.1008   -3.0180 H       1  UNL1        0.0000
     63 H           1.7669    2.9027   -0.6891 H       1  UNL1        0.0000
     64 H           3.1488   -0.1110   -0.0654 H       1  UNL1        0.0000
     65 H          -1.3393   -3.8991    0.9013 H       1  UNL1        0.0000
     66 H          -1.6283    1.2542    2.2598 H       1  UNL1        0.0000
     67 H           2.2281    2.3810    1.1258 H       1  UNL1        0.0000
     68 EU          1.2689    2.1366    0.3150 Eu      1  UNL1        0.0000
@<TRIPOS>BOND
     1     1     2    2
     2     2     3   am
     3     3     4    1
     4     3     5    1
     5     5     6    1
     6     6     7    1
     7     2     8    1
     8     8     9   ar
     9     9    10   ar
    10     8    11   ar
    11    11    12   ar
    12    12    13   ar
    13    10    13   ar
    14    13    14   ar
    15    14    15   ar
    16    15    16   ar
    17    16    17   ar
    18    12    17   ar
    19    17    18   ar
    20    18    19   ar
    21    19    20    1
    22    20    21   ar
    23    21    22   ar
    24    22    23    1
    25    23    24    1
    26    23    25    1
    27    23    26    1
    28    26    27    1
    29    27    28    1
    30    28    29    1
    31    28    30    1
    32    22    31   ar
    33    28    31    1
    34    31    32   ar
    35    32    33   ar
    36    20    33   ar
    37    19    34   ar
    38    34    35   ar
    39    16    35   ar
    40     4    36    1
    41     4    37    1
    42     4    38    1
    43     5    39    1
    44     5    40    1
    45     6    41    1
    46     6    42    1
    47     7    43    1
    48     7    44    1
    49     7    45    1
    50     9    46    1
    51    10    47    1
    52    14    48    1
    53    15    49    1
    54    24    50    1
    55    24    51    1
    56    24    52    1
    57    25    53    1
    58    25    54    1
    59    25    55    1
    60    26    56    1
    61    26    57    1
    62    27    58    1
    63    27    59    1
    64    29    60    1
    65    29    61    1
    66    29    62    1
    67    30    63    1
    68    30    64    1
    69    30    65    1
    70    34    66    1
    71    35    67    1
    72    68     1    1
    73    68    33    1
    74    68    18    1
    75    68    11    1
@<TRIPOS>MOLECULE
*****
 68 75 0 0 0
SMALL
GASTEIGER

@<TRIPOS>ATOM
      1 O           1.5248   -0.5223   -0.6404 O.2     1  UNL1        0.0000
      2 C          -0.9267   -0.2077   -0.7684 C.2     1  UNL1        0.0000
      3 N          -1.2606   -0.8309    2.2863 N.am    1  UNL1        0.0000
      4 C          -1.1727   -0.3512    2.3717 C.3     1  UNL1        0.0000
      5 C          -0.8408   -0.8604    2.5901 C.3     1  UNL1        0.0000
      6 C           0.8884   -2.0851    2.0137 C.3     1  UNL1        0.0000
      7 C          -1.7757   -2.1788    0.0003 C.3     1  UNL1        0.0000
      8 C           0.0499    2.1427    0.3191 C.ar    1  UNL1        0.0000
      9 C           1.2455    0.8812    0.7559 C.ar    1  UNL1        0.0000
     10 C          -0.0827   -0.2441   -3.7895 C.ar    1  UNL1        0.0000
     11 N           0.4897    2.3073   -0.3048 N.ar    1  UNL1        0.0000
     12 C           0.5373    2.0470   -2.0842 C.ar    1  UNL1        0.0000
     13 C          -1.5103    0.4207   -3.0954 C.ar    1  UNL1        0.0000
     14 C           0.1664   -2.3044    0.1787 C.ar    1  UNL1        0.0000
     15 C           0.0686   -2.3434    0.1768 C.ar    1  UNL1        0.0000
     16 C           0.1951   -1.3784   -1.9948 C.ar    1  UNL1        0.0000
     17 C           1.7257   -1.1642   -1.8225 C.ar    1  UNL1        0.0000
     18 N           0.5473   -0.5143    1.2998 N.ar    1  UNL1        0.0000
     19 C          -0.1420   -0.6217    0.9248 C.ar    1  UNL1        0.0000
     20 C          -0.2200   -0.5923    0.9514 C.ar    1  UNL1        0.0000
     21 N          -1.9925    0.7889   -1.0808 N.ar    1  UNL1        0.0000
     22 C          -0.2714    0.5714   -2.1098 C.ar    1  UNL1        0.0000
     23 C          -0.8593   -2.6798   -1.4923 C.3     1  UNL1        0.0000
     24 C          -1.3767    1.1601    0.5289 C.3     1  UNL1        0.0000
     25 C           1.6224    0.5392   -1.7351 C.3     1  UNL1        0.0000
     26 C          -1.4192    1.1075    0.5651 C.3     1  UNL1        0.0000
     27 C          -2.1271   -0.4469    0.4579 C.3     1  UNL1        0.0000
     28 C           2.2413   -0.8743    1.4241 C.3     1  UNL1        0.0000
     29 C          -0.1879    1.0169    1.8330 C.3     1  UNL1        0.0000
     30 C          -2.1171   -0.5235    0.4575 C.3     1  UNL1        0.0000
     31 C          -0.1933    0.5873   -1.9960 C.ar    1  UNL1        0.0000
     32 N          -1.2915    2.9292    0.8279 N.ar    1  UNL1        0.0000
     33 N           0.8431    2.1903    1.7146 N.ar    1  UNL1        0.0000
     34 C          -0.0532   -0.3443    0.6964 C.ar    1  UNL1        0.0000
     35 C           0.2499    0.7235   -0.4697 C.ar    1  UNL1        0.0000
     36 H          -1.9669    0.0750    1.8948 H       1  UNL1        0.0000
     37 H           0.4454   -3.4423    1.2083 H       1  UNL1        0.0000
     38 H          -0.7202    2.1759    2.6411 H       1  UNL1        0.0000
     39 H           0.3645   -2.7939   -2.5787 H       1  UNL1        0.0000
     40 H          -2.0699   -1.4065    2.0604 H       1  UNL1        0.0000
     41 H           1.6334   -2.2687    1.2898 H       1  UNL1        0.0000
     42 H          -2.7288   -0.6599   -1.0641 H       1  UNL1        0.0000
     43 H          -0.6341    1.6238   -3.1071 H       1  UNL1        0.0000
     44 H           2.0165    1.4882   -0.6952 H       1  UNL1        0.0000
     45 H           2.4408   -1.3508    0.0552 H       1  UNL1        0.0000
     46 H          -3.1028   -1.3152    1.4786 H       1  UNL1        0.0000
     47 H           0.2419    0.1346   -3.9132 H       1  UNL1        0.0000
     48 H           3.2234   -0.7481   -1.1903 H       1  UNL1        0.0000
     49 H          -0.6585    0.6897    3.2706 H       1  UNL1        0.0000
     50 H          -0.6723   -2.0719    1.5569 H       1  UNL1        0.0000
     51 H          -1.1952   -2.2956   -1.7876 H       1  UNL1        0.0000
     52 H          -0.8920    2.9938   -0.6107 H       1  UNL1        0.0000
     53 H          -0.0930   -2.7986   -1.2541 H       1  UNL1        0.0000
     54 H          -1.0719    1.8130   -1.0196 H       1  UNL1        0.0000
     55 H           0.5560   -2.4787   -1.2217 H       1  UNL1        0.0000
     56 H           2.6521    0.6424    0.8713 H       1  UNL1        0.0000
     57 H           1.1715   -1.7671   -3.0228 H       1  UNL1        0.0000
     58 H          -1.4927   -1.1590   -2.4299 H       1  UNL1        0.0000
     59 H           0.8191    0.1019    2.5025 H       1  UNL1        0.0000
     60 H          -2.5718    1.8527   -0.2036 H       1  UNL1        0.0000
     61 H           1.1371    1.0844   -3.0208 H       1  UNL1        0.0000
     62 H           1.1750    1.1008   -3.0180 H       1  UNL1        0.0000
     63 H           1.7669    2.9027   -0.6891 H       1  UNL1        0.0000
     64 H           3.1488   -0.1110   -0.0654 H       1  UNL1        0.0000
     65 H          -1.3393   -3.8991    0.9013 H       1  UNL1        0.0000
     66 H          -1.6283    1.2542    2.2598 H       1  UNL1        0.0000
     67 H           2.2281    2.3810    1.1258 H       1  UNL1        0.0000
     68 EU          1.2689    2.1366    0.3150 Eu      1  UNL1        0.0000
@<TRIPOS>BOND
     1     1     2    2
     2     2     3   am
     3     3     4    1
     4     3     5    1
     5     5     6    1
     6     6     7    1
     7     2     8    1
     8     8     9   ar
     9     9    10   ar
    10     8    11   ar
    11    11    12   ar
    12    12    13   ar
    13    10    13   ar
    14    13    14   ar
    15    14    15   ar
    16    15    16   ar
    17    16    17   ar
    18    12    17   ar
    19    17    18   ar
    20    18    19   ar
    21    19    20    1
    22    20    21   ar
    23    21    22   ar
    24    22    23    1
    25    23    24    1
    26    23    25    1
    27    23    26    1
    28    26    27    1
    29    27    28    1
    30    28    29    1
    31    28    30    1
    32    22    31   ar
    33    28    31    1
    34    31    32   ar
    35    32    33   ar
    36    20    33   ar
    37    19    34   ar
    38    34    35   ar
    39    16    35   ar
    40     4    36    1
    41     4    37    1
    42     4    38    1
    43     5    39    1
    44     5    40    1
    45     6    41    1
    46     6    42    1
    47     7    43    1
    48     7    44    1
    49     7    45    1
    50     9    46    1
    51    10    47    1
    52    14    48    1
    53    15    49    1
    54    24    50    1
    55    24    51    1
    56    24    52    1
    57    25    53    1
    58    25    54    1
    59    25    55    1
    60    26    56    1
    61    26    57    1
    62    27    58    1
    63    27    59    1
    64    29    60    1
    65    29    61    1
    66    29    62    1
    67    30    63    1
    68    30    64    1
    69    30    65    1
    70    34    66    1
    71    35    67    1
    72    68     1    1
    73    68    33    1
    74    68    18    1
    75    68    11    1
@<TRIPOS>MOLECULE
*****
 68 75 0 0 0
SMALL
GASTEIGER

@<TRIPOS>ATOM
      1 O           1.5248   -0.5223   -0.6404 O.2     1  UNL1        0.0000
      2 C          -0.9267   -0.2077   -0.7684 C.2     1  UNL1        0.0000
      3 N          -1.2606   -0.8309    2.2863 N.am    1  UNL1        0.0000
      4 C          -1.1727   -0.3512    2.3717 C.3     1  UNL1        0.0000
      5 C          -0.8408   -0.8604    2.5901 C.3     1  UNL1        0.0000
      6 C           0.8884   -2.0851    2.0137 C.3     1  UNL1        0.0000
      7 C          -1.7757   -2.1788    0.0003 C.3     1  UNL1        0.0000
      8 C           0.0499    2.1427    0.3191 C.ar    1  UNL1        0.0000
      9 C           1.2455    0.8812    0.7559 C.ar    1  UNL1        0.0000
     10 C          -0.0827   -0.2441   -3.7895 C.ar    1  UNL1        0.0000
     11 N           0.4897    2.3073   -0.3048 N.ar    1  UNL1        0.0000
     12 C           0.5373    2.0470   -2.0842 C.ar    1  UNL1        0.0000
     13 C          -1.5103    0.4207   -3.0954 C.ar    1  UNL1        0.0000
     14 C           0.1664   -2.3044    0.1787 C.ar    1  UNL1        0.0000
     15 C           0.0686   -2.3434    0.1768 C.ar    1  UNL1        0.0000
     16 C           0.1951   -1.3784   -1.9948 C.ar    1  UNL1        0.0000
     17 C           1.7257   -1.1642   -1.8225 C.ar    1  UNL1        0.0000
     18 N           0.5473   -0.5143    1.2998 N.ar    1  UNL1        0.0000
     19 C          -0.1420   -0.6217    0.9248 C.ar    1  UNL1        0.0000
     20 C          -0.2200   -0.5923    0.9514 C.ar    1  UNL1        0.0000
     21 N          -1.9925    0.7889   -1.0808 N.ar    1  UNL1        0.0000
     22 C          -0.2714    0.5714   -2.1098 C.ar    1  UNL1        0.0000
     23 C          -0.8593   -2.6798   -1.4923 C.3     1  UNL1        0.0000
     24 C          -1.3767    1.1601    0.5289 C.3     1  UNL1        0.0000
     25 C           1.6224    0.5392   -1.7351 C.3     1  UNL1        0.0000
     26 C          -1.4192    1.1075    0.5651 C.3     1  UNL1        0.0000
     27 C          -2.1271   -0.4469    0.4579 C.3     1  UNL1        0.0000
     28 C           2.2413   -0.8743    1.4241 C.3     1  UNL1        0.0000
     29 C          -0.1879    1.0169    1.8330 C.3     1  UNL1        0.0000
     30 C          -2.1171   -0.5235    0.4575 C.3     1  UNL1        0.0000
     31 C          -0.1933    0.5873   -1.9960 C.ar    1  UNL1        0.0000
     32 N          -1.2915    2.9292    0.8279 N.ar    1  UNL1        0.0000
     33 N           0.8431    2.1903    1.7146 N.ar    1  UNL1        0.0000
     34 C          -0.0532   -0.3443    0.6964 C.ar    1  UNL1        0.0000
     35 C           0.2499    0.7235   -0.4697 C.ar    1  UNL1        0.0000
     36 H          -1.9669    0.0750    1.8948 H       1  UNL1        0.0000
     37 H           0.4454   -3.4423    1.2083 H       1  UNL1        0.0000
     38 H          -0.7202    2.1759    2.6411 H       1  UNL1        0.0000
     39 H           0.3645   -2.7939   -2.5787 H       1  UNL1        0.0000
     40 H          -2.0699   -1.4065    2.0604 H       1  UNL1        0.0000
     41 H           1.6334   -2.2687    1.2898 H       1  UNL1        0.0000
     42 H          -2.7288   -0.6599   -1.0641 H       1  UNL1        0.0000
     43 H          -0.6341    1.6238   -3.1071 H       1  UNL1        0.0000
     44 H           2.0165    1.4882   -0.6952 H       1  UNL1        0.0000
     45 H           2.4408   -1.3508    0.0552 H       1  UNL1        0.0000
     46 H          -3.1028   -1.3152    1.4786 H       1  UNL1        0.0000
     47 H           0.2419    0.1346   -3.9132 H       1  UNL1        0.0000
     48 H           3.2234   -0.7481   -1.1903 H       1  UNL1        0.0000
     49 H          -0.6585    0.6897    3.2706 H       1  UNL1        0.0000
     50 H          -0.6723   -2.0719    1.5569 H       1  UNL1        0.0000
     51 H          -1.1952   -2.2956   -1.7876 H       1  UNL1        0.0000
     52 H          -0.8920    2.9938   -0.6107 H       1  UNL1        0.0000
     53 H          -0.0930   -2.7986   -1.2541 H       1  UNL1        0.0000
     54 H          -1.0719    1.8130   -1.0196 H       1  UNL1        0.0000
     55 H           0.5560   -2.4787   -1.2217 H       1  UNL1        0.0000
     56 H           2.6521    0.6424    0.8713 H       1  UNL1        0.0000
     57 H           1.1715   -1.7671   -3.0228 H       1  UNL1        0.0000
     58 H          -1.4927   -1.1590   -2.4299 H       1  UNL1        0.0000
     59 H           0.8191    0.1019    2.5025 H       1  UNL1        0.0000
     60 H          -2.5718    1.8527   -0.2036 H       1  UNL1        0.0000
     61 H           1.1371    1.0844   -3.0208 H       1  UNL1        0.0000
     62 H           1.1750    1.1008   -3.0180 H       1  UNL1        0.0000
     63 H           1.7669    2.9027   -0.6891 H       1  UNL1        0.0000
     64 H           3.1488   -0.1110   -0.0654 H       1  UNL1        0.0000
     65 H          -1.3393   -3.8991    0.9013 H       1  UNL1        0.0000
     66 H          -1.6283    1.2542    2.2598 H       1  UNL1        0.0000
     67 H           2.2281    2.3810    1.1258 H       1  UNL1        0.0000
     68 EU          1.2689    2.1366    0.3150 Eu      1  UNL1        0.0000
@<TRIPOS>BOND
     1     1     2    2
     2     2     3   am
     3     3     4    1
     4     3     5    1
     5     5     6    1
     6     6     7    1
     7     2     8    1
     8     8     9   ar
     9     9    10   ar
    10     8    11   ar
    11    11    12   ar
    12    12    13   ar
    13    10    13   ar
    14    13    14   ar
    15    14    15   ar
    16    15    16   ar
    17    16    17   ar
    18    12    17   ar
    19    17    18   ar
    20    18    19   ar
    21    19    20    1
    22    20    21   ar
    23    21    22   ar
    24    22    23    1
    25    23    24    1
    26    23    25    1
    27    23    26    1
    28    26    27    1
    29    27    28    1
    30    28    29    1
    31    28    30    1
    32    22    31   ar
    33    28    31    1
    34    31    32   ar
    35    32    33   ar
    36    20    33   ar
    37    19    34   ar
    38    34    35   ar
    39    16    35   ar
    40     4    36    1
    41     4    37    1
    42     4    38    1
    43     5    39    1
    44     5    40    1
    45     6    41    1
    46     6    42    1
    47     7    43    1
    48     7    44    1
    49     7    45    1
    50     9    46    1
    51    10    47    1
    52    14    48    1
    53    15    49    1
    54    24    50    1
    55    24    51    1
    56    24    52    1
    57    25    53    1
    58    25    54    1
    59    25    55    1
    60    26    56    1
    61    26    57    1
    62    27    58    1
    63    27    59    1
    64    29    60    1
    65    29    61    1
    66    29    62    1
    67    30    63    1
    68    30    64    1
    69    30    65    1
    70    34    66    1
    71    35    67    1
    72    68     1    1
    73    68    33    1
    74    68    18    1
    75    68    11    1
@<TRIPOS>MOLECULE
*****
 68 75 0 0 0
SMALL
GASTEIGER

@<TRIPOS>ATOM
      1 O           1.5248   -0.5223   -0.6404 O.2     1  UNL1        0.0000
      2 C          -0.9267   -0.2077   -0.7684 C.2     1  UNL1        0.0000
      3 N          -1.2606   -0.8309    2.2863 N.am    1  UNL1        0.0000
      4 C          -1.1727   -0.3512    2.3717 C.3     1  UNL1        0.0000
      5 C          -0.8408   -0.8604    2.5901 C.3     1  UNL1        0.0000
      6 C           0.8884   -2.0851    2.0137 C.3     1  UNL1        0.0000
      7 C          -1.7757   -2.1788    0.0003 C.3     1  UNL1        0.0000
      8 C           0.0499    2.1427    0.3191 C.ar    1  UNL1        0.0000
      9 C           1.2455    0.8812    0.7559 C.ar    1  UNL1        0.0000
     10 C          -0.0827   -0.2441   -3.7895 C.ar    1  UNL1        0.0000
     11 N           0.4897    2.3073   -0.3048 N.ar    1  UNL1        0.0000
     12 C           0.5373    2.0470   -2.0842 C.ar    1  UNL1        0.0000
     13 C          -1.5103    0.4207   -3.0954 C.ar    1  UNL1        0.0000
     14 C           0.1664   -2.3044    0.1787 C.ar    1  UNL1        0.0000
     15 C           0.0686   -2.3434    0.1768 C.ar    1  UNL1        0.0000
     16 C           0.1951   -1.3784   -1.9948 C.ar    1  UNL1        0.0000
     17 C           1.7257   -1.1642   -1.8225 C.ar    1  UNL1        0.0000
     18 N           0.5473   -0.5143    1.2998 N.ar    1  UNL1        0.0000
     19 C          -0.1420   -0.6217    0.9248 C.ar    1  UNL1        0.0000
     20 C          -0.2200   -0.5923    0.9514 C.ar    1  UNL1        0.0000
     21 N          -1.9925    0.7889   -1.0808 N.ar    1  UNL1        0.0000
     22 C          -0.2714    0.5714   -2.1098 C.ar    1  UNL1        0.0000
     23 C          -0.8593   -2.6798   -1.4923 C.3     1  UNL1        0.0000
     24 C          -1.3767    1.1601    0.5289 C.3     1  UNL1        0.0000
     25 C           1.6224    0.5392   -1.7351 C.3     1  UNL1        0.0000
     26 C          -1.4192    1.1075    0.5651 C.3     1  UNL1        0.0000
     27 C          -2.1271   -0.4469    0.4579 C.3     1  UNL1        0.0000
     28 C           2.2413   -0.8743    1.4241 C.3     1  UNL1        0.0000
     29 C          -0.1879    1.0169    1.8330 C.3     1  UNL1        0.0000
     30 C          -2.1171   -0.5235    0.4575 C.3     1  UNL1        0.0000
     31 C          -0.1933    0.5873   -1.9960 C.ar    1  UNL1        0.0000
     32 N          -1.2915    2.9292    0.8279 N.ar    1  UNL1        0.0000
     33 N           0.8431    2.1903    1.7146 N.ar    1  UNL1        0.0000
     34 C          -0.0532   -0.3443    0.6964 C.ar    1  UNL1        0.0000
     35 C           0.2499    0.7235   -0.4697 C.ar    1  UNL1        0.0000
     36 H          -1.9669    0.0750    1.8948 H       1  UNL1        0.0000
     37 H           0.4454   -3.4423    1.2083 H       1  UNL1        0.0000
     38 H          -0.7202    2.1759    2.6411 H       1  UNL1        0.0000
     39 H           0.3645   -2.7939   -2.5787 H       1  UNL1        0.0000
     40 H          -2.0699   -1.4065    2.0604 H       1  UNL1        0.0000
     41 H           1.6334   -2.2687    1.2898 H       1  UNL1        0.0000
     42 H          -2.7288   -0.6599   -1.0641 H       1  UNL1        0.0000
     43 H          -0.6341    1.6238   -3.1071 H       1  UNL1        0.0000
     44 H           2.0165    1.4882   -0.6952 H       1  UNL1        0.0000
     45 H           2.4408   -1.3508    0.0552 H       1  UNL1        0.0000
     46 H          -3.1028   -1.3152    1.4786 H       1  UNL1        0.0000
     47 H           0.2419    0.1346   -3.9132 H       1  UNL1        0.0000
     48 H           3.2234   -0.7481   -1.1903 H       1  UNL1        0.0000
     49 H          -0.6585    0.6897    3.2706 H       1  UNL1        0.0000
     50 H          -0.6723   -2.0719    1.5569 H       1  UNL1        0.0000
     51 H          -1.1952   -2.2956   -1.7876 H       1  UNL1        0.0000
     52 H          -0.8920    2.9938   -0.6107 H       1  UNL1        0.0000
     53 H          -0.0930   -2.7986   -1.2541 H       1  UNL1        0.0000
     54 H          -1.0719    1.8130   -1.0196 H       1  UNL1        0.0000
     55 H           0.5560   -2.4787   -1.2217 H       1  UNL1        0.0000
     56 H           2.6521    0.6424    0.8713 H       1  UNL1        0.0000
     57 H           1.1715   -1.7671   -3.0228 H       1  UNL1        0.0000
     58 H          -1.4927   -1.1590   -2.4299 H       1  UNL1        0.0000
     59 H           0.8191    0.1019    2.5025 H       1  UNL1        0.0000
     60 H          -2.5718    1.8527   -0.2036 H       1  UNL1        0.0000
     61 H           1.1371    1.0844   -3.0208 H       1  UNL1        0.0000
     62 H           1.1750    1.1008   -3.0180 H       1  UNL1        0.0000
     63 H           1.7669    2.9027   -0.6891 H       1  UNL1        0.0000
     64 H           3.1488   -0.1110   -0.0654 H       1  UNL1        0.0000
     65 H          -1.3393   -3.8991    0.9013 H       1  UNL1        0.0000
     66 H          -1.6283    1.2542    2.2598 H       1  UNL1        0.0000
     67 H           2.2281    2.3810    1.1258 H       1  UNL1        0.0000
     68 EU          1.2689    2.1366    0.3150 Eu      1  UNL1        0.0000
@<TRIPOS>BOND
     1     1     2    2
     2     2     3   am
     3     3     4    1
     4     3     5    1
     5     5     6    1
     6     6     7    1
     7     2     8    1
     8     8     9   ar
     9     9    10   ar
    10     8    11   ar
    11    11    12   ar
    12    12    13   ar
    13    10    13   ar
    14    13    14   ar
    15    14    15   ar
    16    15    16   ar
    17    16    17   ar
    18    12    17   ar
    19    17    18   ar
    20    18    19   ar
    21    19    20    1
    22    20    21   ar
    23    21    22   ar
    24    22    23    1
    25    23    24    1
    26    23    25    1
    27    23    26    1
    28    26    27    1
    29    27    28    1
    30    28    29    1
    31    28    30    1
    32    22    31   ar
    33    28    31    1
    34    31    32   ar
    35    32    33   ar
    36    20    33   ar
    37    19    34   ar
    38    34    35   ar
    39    16    35   ar
    40     4    36    1
    41     4    37    1
    42     4    38    1
    43     5    39    1
    44     5    40    1
    45     6    41    1
    46     6    42    1
    47     7    43    1
    48     7    44    1
    49     7    45    1
    50     9    46    1
    51    10    47    1
    52    14    48    1
    53    15    49    1
    54    24    50    1
    55    24    51    1
    56    24    52    1
    57    25    53    1
    58    25    54    1
    59    25    55    1
    60    26    56    1
    61    26    57    1
    62    27    58    1
    63    27    59    1
    64    29    60    1
    65    29    61    1
    66    29    62    1
    67    30    63    1
    68    30    64    1
    69    30    65    1
    70    34    66    1
    71    35    67    1
    72    68     1    1
    73    68    33    1
    74    68    18    1
    75    68    11    1
@<TRIPOS>MOLECULE
*****
 68 75 0 0 0
SMALL
GASTEIGER

@<TRIPOS>ATOM
      1 O           1.5248   -0.5223   -0.6404 O.2     1  UNL1        0.0000
      2 C          -0.9267   -0.2077   -0.7684 C.2     1  UNL1        0.0000
      3 N          -1.2606   -0.8309    2.2863 N.am    1  UNL1        0.0000
      4 C          -1.1727   -0.3512    2.3717 C.3     1  UNL1        0.0000
      5 C          -0.8408   -0.8604    2.5901 C.3     1  UNL1        0.0000
      6 C           0.8884   -2.0851    2.0137 C.3     1  UNL1        0.0000
      7 C          -1.7757   -2.1788    0.0003 C.3     1  UNL1        0.0000
      8 C           0.0499    2.1427    0.3191 C.ar    1  UNL1        0.0000
      9 C           1.2455    0.8812    0.7559 C.ar    1  UNL1        0.0000
     10 C          -0.0827   -0.2441   -3.7895 C.ar    1  UNL1        0.0000
     11 N           0.4897    2.3073   -0.3048 N.ar    1  UNL1        0.0000
     12 C           0.5373    2.0470   -2.0842 C.ar    1  UNL1        0.0000
     13 C          -1.5103    0.4207   -3.0954 C.ar    1  UNL1        0.0000
     14 C           0.1664   -2.3044    0.1787 C.ar    1  UNL1        0.0000
     15 C           0.0686   -2.3434    0.1768 C.ar    1  UNL1        0.0000
     16 C           0.1951   -1.3784   -1.9948 C.ar    1  UNL1        0.0000
     17 C           1.7257   -1.1642   -1.8225 C.ar    1  UNL1        0.0000
     18 N           0.5473   -0.5143    1.2998 N.ar    1  UNL1        0.0000
     19 C          -0.1420   -0.6217    0.9248 C.ar    1  UNL1        0.0000
     20 C          -0.2200   -0.5923    0.9514 C.ar    1  UNL1        0.0000
     21 N          -1.9925    0.7889   -1.0808 N.ar    1  UNL1        0.0000
     22 C          -0.2714    0.5714   -2.1098 C.ar    1  UNL1        0.0000
     23 C          -0.8593   -2.6798   -1.4923 C.3     1  UNL1        0.0000
     24 C          -1.3767    1.1601    0.5289 C.3     1  UNL1        0.0000
     25 C           1.6224    0.5392   -1.7351 C.3     1  UNL1        0.0000
     26 C          -1.4192    1.1075    0.5651 C.3     1  UNL1        0.0000
     27 C          -2.1271   -0.4469    0.4579 C.3     1  UNL1        0.0000
     28 C           2.2413   -0.8743    1.4241 C.3     1  UNL1        0.0000
     29 C          -0.1879    1.0169    1.8330 C.3     1  UNL1        0.0000
     30 C          -2.1171   -0.5235    0.4575 C.3     1  UNL1        0.0000
     31 C          -0.1933    0.5873   -1.9960 C.ar    1  UNL1        0.0000
     32 N          -1.2915    2.9292    0.8279 N.ar    1  UNL1        0.0000
     33 N           0.8431    2.1903    1.7146 N.ar    1  UNL1        0.0000
     34 C          -0.0532   -0.3443    0.6964 C.ar    1  UNL1        0.0000
     35 C           0.2499    0.7235   -0.4697 C.ar    1  UNL1        0.0000
     36 H          -1.9669    0.0750    1.8948 H       1  UNL1        0.0000
     37 H           0.4454   -3.4423    1.2083 H       1  UNL1        0.0000
     38 H          -0.7202    2.1759    2.6411 H       1  UNL1        0.0000
     39 H           0.3645   -2.7939   -2.5787 H       1  UNL1        0.0000
     40 H          -2.0699   -1.4065    2.0604 H       1  UNL1        0.0000
     41 H           1.6334   -2.2687    1.2898 H       1  UNL1        0.0000
     42 H          -2.7288   -0.6599   -1.0641 H       1  UNL1        0.0000
     43 H          -0.6341    1.6238   -3.1071 H       1  UNL1        0.0000
     44 H           2.0165    1.4882   -0.6952 H       1  UNL1        0.0000
     45 H           2.4408   -1.3508    0.0552 H       1  UNL1        0.0000
     46 H          -3.1028   -1.3152    1.4786 H       1  UNL1        0.0000
     47 H           0.2419    0.1346   -3.9132 H       1  UNL1        0.0000
     48 H           3.2234   -0.7481   -1.1903 H       1  UNL1        0.0000
     49 H          -0.6585    0.6897    3.2706 H       1  UNL1        0.0000
     50 H          -0.6723   -2.0719    1.5569 H       1  UNL1        0.0000
     51 H          -1.1952   -2.2956   -1.7876 H       1  UNL1        0.0000
     52 H          -0.8920    2.9938   -0.6107 H       1  UNL1        0.0000
     53 H          -0.0930   -2.7986   -1.2541 H       1  UNL1        0.0000
     54 H          -1.0719    1.8130   -1.0196 H       1  UNL1        0.0000
     55 H           0.5560   -2.4787   -1.2217 H       1  UNL1        0.0000
     56 H           2.6521    0.6424    0.8713 H       1  UNL1        0.0000
     57 H           1.1715   -1.7671   -3.0228 H       1  UNL1        0.0000
     58 H          -1.4927   -1.1590   -2.4299 H       1  UNL1        0.0000
     59 H           0.8191    0.1019    2.5025 H       1  UNL1        0.0000
     60 H          -2.5718    1.8527   -0.2036 H       1  UNL1        0.0000
     61 H           1.1371    1.0844   -3.0208 H       1  UNL1        0.0000
     62 H           1.1750    1.1008   -3.0180 H       1  UNL1        0.0000
     63 H           1.7669    2.9027   -0.6891 H       1  UNL1        0.0000
     64 H           3.1488   -0.1110   -0.0654 H       1  UNL1        0.0000
     65 H          -1.3393   -3.8991    0.9013 H       1  UNL1        0.0000
     66 H          -1.6283    1.2542    2.2598 H       1  UNL1        0.0000
     67 H           2.2281    2.3810    1.1258 H       1  UNL1        0.0000
     68 EU          1.2689    2.1366    0.3150 Eu      1  UNL1        0.0000
@<TRIPOS>BOND
     1     1     2    2
     2     2     3   am
     3     3     4    1
     4     3     5    1
     5     5     6    1
     6     6     7    1
     7     2     8    1
     8     8     9   ar
     9     9    10   ar
    10     8    11   ar
    11    11    12   ar
    12    12    13   ar
    13    10    13   ar
    14    13    14   ar
    15    14    15   ar
    16    15    16   ar
    17    16    17   ar
    18    12    17   ar
    19    17    18   ar
    20    18    19   ar
    21    19    20    1
    22    20    21   ar
    23    21    22   ar
    24    22    23    1
    25    23    24    1
    26    23    25    1
    27    23    26    1
    28    26    27    1
    29    27    28    1
    30    28    29    1
    31    28    30    1
    32    22    31   ar
    33    28    31    1
    34    31    32   ar
    35    32    33   ar
    36    20    33   ar
    37    19    34   ar
    38    34    35   ar
    39    16    35   ar
    40     4    36    1
    41     4    37    1
    42     4    38    1
    43     5    39    1
    44     5    40    1
    45     6    41    1
    46     6    42    1
    47     7    43    1
    48     7    44    1
    49     7    45    1
    50     9    46    1
    51    10    47    1
    52    14    48    1
    53    15    49    1
    54    24    50    1
    55    24    51    1
    56    24    52    1
    57    25    53    1
    58    25    54    1
    59    25    55    1
    60    26    56    1
    61    26    57    1
    62    27    58    1
    63    27    59    1
    64    29    60    1
    65    29    61    1
    66    29    62    1
    67    30    63    1
    68    30    64    1
    69    30    65    1
    70    34    66    1
    71    35    67    1
    72    68     1    1
    73    68    33    1
    74    68    18    1
    75    68    11    1
@<TRIPOS>MOLECULE
*****
 68 75 0 0 0
SMALL
GASTEIGER

@<TRIPOS>ATOM
      1 O           1.5248   -0.5223   -0.6404 O.2     1  UNL1        0.0000
      2 C          -0.9267   -0.2077   -0.7684 C.2     1  UNL1        0.0000
      3 N          -1.2606   -0.8309    2.2863 N.am    1  UNL1        0.0000
      4 C          -1.1727   -0.3512    2.3717 C.3     1  UNL1        0.0000
      5 C          -0.8408   -0.8604    2.5901 C.3     1  UNL1        0.0000
      6 C           0.8884   -2.0851    2.0137 C.3     1  UNL1        0.0000
      7 C          -1.7757   -2.1788    0.0003 C.3     1  UNL1        0.0000
      8 C           0.0499    2.1427    0.3191 C.ar    1  UNL1        0.0000
      9 C           1.2455    0.8812    0.7559 C.ar    1  UNL1        0.0000
     10 C          -0.0827   -0.2441   -3.7895 C.ar    1  UNL1        0.0000
     11 N           0.4897    2.3073   -0.3048 N.ar    1  UNL1        0.0000
     12 C           0.5373    2.0470   -2.0842 C.ar    1  UNL1        0.0000
     13 C          -1.5103    0.4207   -3.0954 C.ar    1  UNL1        0.0000
     14 C           0.1664   -2.3044    0.1787 C.ar    1  UNL1        0.0000
     15 C           0.0686   -2.3434    0.1768 C.ar    1  UNL1        0.0000
     16 C           0.1951   -1.3784   -1.9948 C.ar    1  UNL1        0.0000
     17 C           1.7257   -1.1642   -1.8225 C.ar    1  UNL1        0.0000
     18 N           0.5473   -0.5143    1.2998 N.ar    1  UNL1        0.0000
     19 C          -0.1420   -0.6217    0.9248 C.ar    1  UNL1        0.0000
     20 C          -0.2200   -0.5923    0.9514 C.ar    1  UNL1        0.0000
     21 N          -1.9925    0.7889   -1.0808 N.ar    1  UNL1        0.0000
     22 C          -0.2714    0.5714   -2.1098 C.ar    1  UNL1        0.0000
     23 C          -0.8593   -2.6798   -1.4923 C.3     1  UNL1        0.0000
     24 C          -1.3767    1.1601    0.5289 C.3     1  UNL1        0.0000
     25 C           1.6224    0.5392   -1.7351 C.3     1  UNL1        0.0000
     26 C          -1.4192    1.1075    0.5651 C.3     1  UNL1        0.0000
     27 C          -2.1271   -0.4469    0.4579 C.3     1  UNL1        0.0000
     28 C           2.2413   -0.8743    1.4241 C.3     1  UNL1        0.0000
     29 C          -0.1879    1.0169    1.8330 C.3     1  UNL1        0.0000
     30 C          -2.1171   -0.5235    0.4575 C.3     1  UNL1        0.0000
     31 C          -0.1933    0.5873   -1.9960 C.ar    1  UNL1        0.0000
     32 N          -1.2915    2.9292    0.8279 N.ar    1  UNL1        0.0000
     33 N           0.8431    2.1903    1.7146 N.ar    1  UNL1        0.0000
     34 C          -0.0532   -0.3443    0.6964 C.ar    1  UNL1        0.0000
     35 C           0.2499    0.7235   -0.4697 C.ar    1  UNL1        0.0000
     36 H          -1.9669    0.0750    1.8948 H       1  UNL1        0.0000
     37 H           0.4454   -3.4423    1.2083 H       1  UNL1        0.0000
     38 H          -0.7202    2.1759    2.6411 H       1  UNL1        0.0000
     39 H           0.3645   -2.7939   -2.5787 H       1  UNL1        0.0000
     40 H          -2.0699   -1.4065    2.0604 H       1  UNL1        0.0000
     41 H           1.6334   -2.2687    1.2898 H       1  UNL1        0.0000
     42 H          -2.7288   -0.6599   -1.0641 H       1  UNL1        0.0000
     43 H          -0.6341    1.6238   -3.1071 H       1  UNL1        0.0000
     44 H           2.0165    1.4882   -0.6952 H       1  UNL1        0.0000
     45 H           2.4408   -1.3508    0.0552 H       1  UNL1        0.0000
     46 H          -3.1028   -1.3152    1.4786 H       1  UNL1        0.0000
     47 H           0.2419    0.1346   -3.9132 H       1  UNL1        0.0000
     48 H           3.2234   -0.7481   -1.1903 H       1  UNL1        0.0000
     49 H          -0.6585    0.6897    3.2706 H       1  UNL1        0.0000
     50 H          -0.6723   -2.0719    1.5569 H       1  UNL1        0.0000
     51 H          -1.1952   -2.2956   -1.7876 H       1  UNL1        0.0000
     52 H          -0.8920    2.9938   -0.6107 H       1  UNL1        0.0000
     53 H          -0.0930   -2.7986   -1.2541 H       1  UNL1        0.0000
     54 H          -1.0719    1.8130   -1.0196 H       1  UNL1        0.0000
     55 H           0.5560   -2.4787   -1.2217 H       1  UNL1        0.0000
     56 H           2.6521    0.6424    0.8713 H       1  UNL1        0.0000
     57 H           1.1715   -1.7671   -3.0228 H       1  UNL1        0.0000
     58 H          -1.4927   -1.1590   -2.4299 H       1  UNL1        0.0000
     59 H           0.8191    0.1019    2.5025 H       1  UNL1        0.0000
     60 H          -2.5718    1.8527   -0.2036 H       1  UNL1        0.0000
     61 H           1.1371    1.0844   -3.0208 H       1  UNL1        0.0000
     62 H           1.1750    1.1008   -3.0180 H       1  UNL1        0.0000
     63 H           1.7669    2.9027   -0.6891 H       1  UNL1        0.0000
     64 H           3.1488   -0.1110   -0.0654 H       1  UNL1        0.0000
     65 H          -1.3393   -3.8991    0.9013 H       1  UNL1        0.0000
     66 H          -1.6283    1.2542    2.2598 H       1  UNL1        0.0000
     67 H           2.2281    2.3810    1.1258 H       1  UNL1        0.0000
     68 EU          1.2689    2.1366    0.3150 Eu      1  UNL1        0.0000
@<TRIPOS>BOND
     1     1     2    2
     2     2     3   am
     3     3     4    1
     4     3     5    1
     5     5     6    1
     6     6     7    1
     7     2     8    1
     8     8     9   ar
     9     9    10   ar
    10     8    11   ar
    11    11    12   ar
    12    12    13   ar
    13    10    13   ar
    14    13    14   ar
    15    14    15   ar
    16    15    16   ar
    17    16    17   ar
    18    12    17   ar
    19    17    18   ar
    20    18    19   ar
    21    19    20    1
    22    20    21   ar
    23    21    22   ar
    24    22    23    1
    25    23    24    1
    26    23    25    1
    27    23    26    1
    28    26    27    1
    29    27    28    1
    30    28    29    1
    31    28    30    1
    32    22    31   ar
    33    28    31    1
    34    31    32   ar
    35    32    33   ar
    36    20    33   ar
    37    19    34   ar
    38    34    35   ar
    39    16    35   ar
    40     4    36    1
    41     4    37    1
    42     4    38    1
    43     5    39    1
    44     5    40    1
    45     6    41    1
    46     6    42    1
    47     7    43    1
    48     7    44    1
    49     7    45    1
    50     9    46    1
    51    10    47    1
    52    14    48    1
    53    15    49    1
    54    24    50    1
    55    24    51    1
    56    24    52    1
    57    25    53    1
    58    25    54    1
    59    25    55    1
    60    26    56    1
    61    26    57    1
    62    27    58    1
    63    27    59    1
    64    29    60    1
    65    29    61    1
    66    29    62    1
    67    30    63    1
    68    30    64    1
    69    30    65    1
    70    34    66    1
    71    35    67    1
    72    68     1    1
    73    68    33    1
    74    68    18    1
    75    68    11    1
@<TRIPOS>MOLECULE
*****
 68 75 0 0 0
SMALL
GASTEIGER

@<TRIPOS>ATOM
      1 O           1.5248   -0.5223   -0.6404 O.2     1  UNL1        0.0000
      2 C          -0.9267   -0.2077   -0.7684 C.2     1  UNL1        0.0000
      3 N          -1.2606   -0.8309    2.2863 N.am    1  UNL1        0.0000
      4 C          -1.1727   -0.3512    2.3717 C.3     1  UNL1        0.0000
      5 C          -0.8408   -0.8604    2.5901 C.3     1  UNL1        0.0000
      6 C           0.8884   -2.0851    2.0137 C.3     1  UNL1        0.0000
      7 C          -1.7757   -2.1788    0.0003 C.3     1  UNL1        0.0000
      8 C           0.0499    2.1427    0.3191 C.ar    1  UNL1        0.0000
      9 C           1.2455    0.8812    0.7559 C.ar    1  UNL1        0.0000
     10 C          -0.0827   -0.2441   -3.7895 C.ar    1  UNL1        0.0000
     11 N           0.4897    2.3073   -0.3048 N.ar    1  UNL1        0.0000
     12 C           0.5373    2.0470   -2.0842 C.ar    1  UNL1        0.0000
     13 C          -1.5103    0.4207   -3.0954 C.ar    1  UNL1        0.0000
     14 C           0.1664   -2.3044    0.1787 C.ar    1  UNL1        0.0000
     15 C           0.0686   -2.3434    0.1768 C.ar    1  UNL1        0.0000
     16 C           0.1951   -1.3784   -1.9948 C.ar    1  UNL1        0.0000
     17 C           1.7257   -1.1642   -1.8225 C.ar    1  UNL1        0.0000
     18 N           0.5473   -0.5143    1.2998 N.ar    1  UNL1        0.0000
     19 C          -0.1420   -0.6217    0.9248 C.ar    1  UNL1        0.0000
     20 C          -0.2200   -0.5923    0.9514 C.ar    1  UNL1        0.0000
     21 N          -1.9925    0.7889   -1.0808 N.ar    1  UNL1        0.0000
     22 C          -0.2714    0.5714   -2.1098 C.ar    1  UNL1        0.0000
     23 C          -0.8593   -2.6798   -1.4923 C.3     1  UNL1        0.0000
     24 C          -1.3767    1.1601    0.5289 C.3     1  UNL1        0.0000
     25 C           1.6224    0.5392   -1.7351 C.3     1  UNL1        0.0000
     26 C          -1.4192    1.1075    0.5651 C.3     1  UNL1        0.0000
     27 C          -2.1271   -0.4469    0.4579 C.3     1  UNL1        0.0000
     28 C           2.2413   -0.8743    1.4241 C.3     1  UNL1        0.0000
     29 C          -0.1879    1.0169    1.8330 C.3     1  UNL1        0.0000
     30 C          -2.1171   -0.5235    0.4575 C.3     1  UNL1        0.0000
     31 C          -0.1933    0.5873   -1.9960 C.ar    1  UNL1        0.0000
     32 N          -1.2915    2.9292    0.8279 N.ar    1  UNL1        0.0000
     33 N           0.8431    2.1903    1.7146 N.ar    1  UNL1        0.0000
     34 C          -0.0532   -0.3443    0.6964 C.ar    1  UNL1        0.0000
     35 C           0.2499    0.7235   -0.4697 C.ar    1  UNL1        0.0000
     36 H          -1.9669    0.0750    1.8948 H       1  UNL1        0.0000
     37 H           0.4454   -3.4423    1.2083 H       1  UNL1        0.0000
     38 H          -0.7202    2.1759    2.6411 H       1  UNL1        0.0000
     39 H           0.3645   -2.7939   -2.5787 H       1  UNL1        0.0000
     40 H          -2.0699   -1.4065    2.0604 H       1  UNL1        0.0000
     41 H           1.6334   -2.2687    1.2898 H       1  UNL1        0.0000
     42 H          -2.7288   -0.6599   -1.0641 H       1  UNL1        0.0000
     43 H          -0.6341    1.6238   -3.1071 H       1  UNL1        0.0000
     44 H           2.0165    1.4882   -0.6952 H       1  UNL1        0.0000
     45 H           2.4408   -1.3508    0.0552 H       1  UNL1        0.0000
     46 H          -3.1028   -1.3152    1.4786 H       1  UNL1        0.0000
     47 H           0.2419    0.1346   -3.9132 H       1  UNL1        0.0000
     48 H           3.2234   -0.7481   -1.1903 H       1  UNL1        0.0000
     49 H          -0.6585    0.6897    3.2706 H       1  UNL1        0.0000
     50 H          -0.6723   -2.0719    1.5569 H       1  UNL1        0.0000
     51 H          -1.1952   -2.2956   -1.7876 H       1  UNL1        0.0000
     52 H          -0.8920    2.9938   -0.6107 H       1  UNL1        0.0000
     53 H          -0.0930   -2.7986   -1.2541 H       1  UNL1        0.0000
     54 H          -1.0719    1.8130   -1.0196 H       1  UNL1        0.0000
     55 H           0.5560   -2.4787   -1.2217 H       1  UNL1        0.0000
     56 H           2.6521    0.6424    0.8713 H       1  UNL1        0.0000
     57 H           1.1715   -1.7671   -3.0228 H       1  UNL1        0.0000
     58 H          -1.4927   -1.1590   -2.4299 H       1  UNL1        0.0000
     59 H           0.8191    0.1019    2.5025 H       1  UNL1        0.0000
     60 H          -2.5718    1.8527   -0.2036 H       1  UNL1        0.0000
     61 H           1.1371    1.0844   -3.0208 H       1  UNL1        0.0000
     62 H           1.1750    1.1008   -3.0180 H       1  UNL1        0.0000
     63 H           1.7669    2.9027   -0.6891 H       1  UNL1        0.0000
     64 H           3.1488   -0.1110   -0.0654 H       1  UNL1        0.0000
     65 H          -1.3393   -3.8991    0.9013 H       1  UNL1        0.0000
     66 H          -1.6283    1.2542    2.2598 H       1  UNL1        0.0000
     67 H           2.2281    2.3810    1.1258 H       1  UNL1        0.0000
     68 EU          1.2689    2.1366    0.3150 Eu      1  UNL1        0.0000
@<TRIPOS>BOND
     1     1     2    2
     2     2     3   am
     3     3     4    1
     4     3     5    1
     5     5     6    1
     6     6     7    1
     7     2     8    1
     8     8     9   ar
     9     9    10   ar
    10     8    11   ar
    11    11    12   ar
    12    12    13   ar
    13    10    13   ar
    14    13    14   ar
    15    14    15   ar
    16    15    16   ar
    17    16    17   ar
    18    12    17   ar
    19    17    18   ar
    20    18    19   ar
    21    19    20    1
    22    20    21   ar
    23    21    22   ar
    24    22    23    1
    25    23    24    1
    26    23    25    1
    27    23    26    1
    28    26    27    1
    29    27    28    1
    30    28    29    1
    31    28    30    1
    32    22    31   ar
    33    28    31    1
    34    31    32   ar
    35    32    33   ar
    36    20    33   ar
    37    19    34   ar
    38    34    35   ar
    39    16    35   ar
    40     4    36    1
    41     4    37    1
    42     4    38    1
    43     5    39    1
    44     5    40    1
    45     6    41    1
    46     6    42    1
    47     7    43    1
    48     7    44    1
    49     7    45    1
    50     9    46    1
    51    10    47    1
    52    14    48    1
    53    15    49    1
    54    24    50    1
    55    24    51    1
    56    24    52    1
    57    25    53    1
    58    25    54    1
    59    25    55    1
    60    26    56    1
    61    26    57    1
    62    27    58    1
    63    27    59    1
    64    29    60    1
    65    29    61    1
    66    29    62    1
    67    30    63    1
    68    30    64    1
    69    30    65    1
    70    34    66    1
    71    35    67    1
    72    68     1    1
    73    68    33    1
    74    68    18    1
    75    68    11    1
@<TRIPOS>MOLECULE
*****
 68 75 0 0 0
SMALL
GASTEIGER

@<TRIPOS>ATOM
      1 O           1.5248   -0.5223   -0.6404 O.2     1  UNL1        0.0000
      2 C          -0.9267   -0.2077   -0.7684 C.2     1  UNL1        0.0000
      3 N          -1.2606   -0.8309    2.2863 N.am    1  UNL1        0.0000
      4 C          -1.1727   -0.3512    2.3717 C.3     1  UNL1        0.0000
      5 C          -0.8408   -0.8604    2.5901 C.3     1  UNL1        0.0000
      6 C           0.8884   -2.0851    2.0137 C.3     1  UNL1        0.0000
      7 C          -1.7757   -2.1788    0.0003 C.3     1  UNL1        0.0000
      8 C           0.0499    2.1427    0.3191 C.ar    1  UNL1        0.0000
      9 C           1.2455    0.8812    0.7559 C.ar    1  UNL1        0.0000
     10 C          -0.0827   -0.2441   -3.7895 C.ar    1  UNL1        0.0000
     11 N           0.4897    2.3073   -0.3048 N.ar    1  UNL1        0.0000
     12 C           0.5373    2.0470   -2.0842 C.ar    1  UNL1        0.0000
     13 C          -1.5103    0.4207   -3.0954 C.ar    1  UNL1        0.0000
     14 C           0.1664   -2.3044    0.1787 C.ar    1  UNL1        0.0000
     15 C           0.0686   -2.3434    0.1768 C.ar    1  UNL1        0.0000
     16 C           0.1951   -1.3784   -1.9948 C.ar    1  UNL1        0.0000
     17 C           1.7257   -1.1642   -1.8225 C.ar    1  UNL1        0.0000
     18 N           0.5473   -0.5143    1.2998 N.ar    1  UNL1        0.0000
     19 C          -0.1420   -0.6217    0.9248 C.ar    1  UNL1        0.0000
     20 C          -0.2200   -0.5923    0.9514 C.ar    1  UNL1        0.0000
     21 N          -1.9925    0.7889   -1.0808 N.ar    1  UNL1        0.0000
     22 C          -0.2714    0.5714   -2.1098 C.ar    1  UNL1        0.0000
     23 C          -0.8593   -2.6798   -1.4923 C.3     1  UNL1        0.0000
     24 C          -1.3767    1.1601    0.5289 C.3     1  UNL1        0.0000
     25 C           1.6224    0.5392   -1.7351 C.3     1  UNL1        0.0000
     26 C          -1.4192    1.1075    0.5651 C.3     1  UNL1        0.0000
     27 C          -2.1271   -0.4469    0.4579 C.3     1  UNL1        0.0000
     28 C           2.2413   -0.8743    1.4241 C.3     1  UNL1        0.0000
     29 C          -0.1879    1.0169    1.8330 C.3     1  UNL1        0.0000
     30 C          -2.1171   -0.5235    0.4575 C.3     1  UNL1        0.0000
     31 C          -0.1933    0.5873   -1.9960 C.ar    1  UNL1        0.0000
     32 N          -1.2915    2.9292    0.8279 N.ar    1  UNL1        0.0000
     33 N           0.8431    2.1903    1.7146 N.ar    1  UNL1        0.0000
     34 C          -0.0532   -0.3443    0.6964 C.ar    1  UNL1        0.0000
     35 C           0.2499    0.7235   -0.4697 C.ar    1  UNL1        0.0000
     36 H          -1.9669    0.0750    1.8948 H       1  UNL1        0.0000
     37 H           0.4454   -3.4423    1.2083 H       1  UNL1        0.0000
     38 H          -0.7202    2.1759    2.6411 H       1  UNL1        0.0000
     39 H           0.3645   -2.7939   -2.5787 H       1  UNL1        0.0000
     40 H          -2.0699   -1.4065    2.0604 H       1  UNL1        0.0000
     41 H           1.6334   -2.2687    1.2898 H       1  UNL1        0.0000
     42 H          -2.7288   -0.6599   -1.0641 H       1  UNL1        0.0000
     43 H          -0.6341    1.6238   -3.1071 H       1  UNL1        0.0000
     44 H           2.0165    1.4882   -0.6952 H       1  UNL1        0.0000
     45 H           2.4408   -1.3508    0.0552 H       1  UNL1        0.0000
     46 H          -3.1028   -1.3152    1.4786 H       1  UNL1        0.0000
     47 H           0.2419    0.1346   -3.9132 H       1  UNL1        0.0000
     48 H           3.2234   -0.7481   -1.1903 H       1  UNL1        0.0000
     49 H          -0.6585    0.6897    3.2706 H       1  UNL1        0.0000
     50 H          -0.6723   -2.0719    1.5569 H       1  UNL1        0.0000
     51 H          -1.1952   -2.2956   -1.7876 H       1  UNL1        0.0000
     52 H          -0.8920    2.9938   -0.6107 H       1  UNL1        0.0000
     53 H          -0.0930   -2.7986   -1.2541 H       1  UNL1        0.0000
     54 H          -1.0719    1.8130   -1.0196 H       1  UNL1        0.0000
     55 H           0.5560   -2.4787   -1.2217 H       1  UNL1        0.0000
     56 H           2.6521    0.6424    0.8713 H       1  UNL1        0.0000
     57 H           1.1715   -1.7671   -3.0228 H       1  UNL1        0.0000
     58 H          -1.4927   -1.1590   -2.4299 H       1  UNL1        0.0000
     59 H           0.8191    0.1019    2.5025 H       1  UNL1        0.0000
     60 H          -2.5718    1.8527   -0.2036 H       1  UNL1        0.0000
     61 H           1.1371    1.0844   -3.0208 H       1  UNL1        0.0000
     62 H           1.1750    1.1008   -3.0180 H       1  UNL1        0.0000
     63 H           1.7669    2.9027   -0.6891 H       1  UNL1        0.0000
     64 H           3.1488   -0.1110   -0.0654 H       1  UNL1        0.0000
     65 H          -1.3393   -3.8991    0.9013 H       1  UNL1        0.0000
     66 H          -1.6283    1.2542    2.2598 H       1  UNL1        0.0000
     67 H           2.2281    2.3810    1.1258 H       1  UNL1        0.0000
     68 EU          1.2689    2.1366    0.3150 Eu      1  UNL1        0.0000
@<TRIPOS>BOND
     1     1     2    2
     2     2     3   am
     3     3     4    1
     4     3     5    1
     5     5     6    1
     6     6     7    1
     7     2     8    1
     8     8     9   ar
     9     9    10   ar
    10     8    11   ar
    11    11    12   ar
    12    12    13   ar
    13    10    13   ar
    14    13    14   ar
    15    14    15   ar
    16    15    16   ar
    17    16    17   ar
    18    12    17   ar
    19    17    18   ar
    20    18    19   ar
    21    19    20    1
    22    20    21   ar
    23    21    22   ar
    24    22    23    1
    25    23    24    1
    26    23    25    1
    27    23    26    1
    28    26    27    1
    29    27    28    1
    30    28    29    1
    31    28    30    1
    32    22    31   ar
    33    28    31    1
    34    31    32   ar
    35    32    33   ar
    36    20    33   ar
    37    19    34   ar
    38    34    35   ar
    39    16    35   ar
    40     4    36    1
    41     4    37    1
    42     4    38    1
    43     5    39    1
    44     5    40    1
    45     6    41    1
    46     6    42    1
    47     7    43    1
    48     7    44    1
    49     7    45    1
    50     9    46    1
    51    10    47    1
    52    14    48    1
    53    15    49    1
    54    24    50    1
    55    24    51    1
    56    24    52    1
    57    25    53    1
    58    25    54    1
    59    25    55    1
    60    26    56    1
    61    26    57    1
    62    27    58    1
    63    27    59    1
    64    29    60    1
    65    29    61    1
    66    29    62    1
    67    30    63    1
    68    30    64    1
    69    30    65    1
    70    34    66    1
    71    35    67    1
    72    68     1    1
    73    68    33    1
    74    68    18    1
    75    68    11    1
@<TRIPOS>MOLECULE
*****
 68 75 0 0 0
SMALL
GASTEIGER

@<TRIPOS>ATOM
      1 O           1.5248   -0.5223   -0.6404 O.2     1  UNL1        0.0000
      2 C          -0.9267   -0.2077   -0.7684 C.2     1  UNL1        0.0000
      3 N          -1.2606   -0.8309    2.2863 N.am    1  UNL1        0.0000
      4 C          -1.1727   -0.3512    2.3717 C.3     1  UNL1        0.0000
      5 C          -0.8408   -0.8604    2.5901 C.3     1  UNL1        0.0000
      6 C           0.8884   -2.0851    2.0137 C.3     1  UNL1        0.0000
      7 C          -1.7757   -2.1788    0.0003 C.3     1  UNL1        0.0000
      8 C           0.0499    2.1427    0.3191 C.ar    1  UNL1        0.0000
      9 C           1.2455    0.8812    0.7559 C.ar    1  UNL1        0.0000
     10 C          -0.0827   -0.2441   -3.7895 C.ar    1  UNL1        0.0000
     11 N           0.4897    2.3073   -0.3048 N.ar    1  UNL1        0.0000
     12 C           0.5373    2.0470   -2.0842 C.ar    1  UNL1        0.0000
     13 C          -1.5103    0.4207   -3.0954 C.ar    1  UNL1        0.0000
     14 C           0.1664   -2.3044    0.1787 C.ar    1  UNL1        0.0000
     15 C           0.0686   -2.3434    0.1768 C.ar    1  UNL1        0.0000
     16 C           0.1951   -1.3784   -1.9948 C.ar    1  UNL1        0.0000
     17 C           1.7257   -1.1642   -1.8225 C.ar    1  UNL1        0.0000
     18 N           0.5473   -0.5143    1.2998 N.ar    1  UNL1        0.0000
     19 C          -0.1420   -0.6217    0.9248 C.ar    1  UNL1        0.0000
     20 C          -0.2200   -0.5923    0.9514 C.ar    1  UNL1        0.0000
     21 N          -1.9925    0.7889   -1.0808 N.ar    1  UNL1        0.0000
     22 C          -0.2714    0.5714   -2.1098 C.ar    1  UNL1        0.0000
     23 C          -0.8593   -2.6798   -1.4923 C.3     1  UNL1        0.0000
     24 C          -1.3767    1.1601    0.5289 C.3     1  UNL1        0.0000
     25 C           1.6224    0.5392   -1.7351 C.3     1  UNL1        0.0000
     26 C          -1.4192    1.1075    0.5651 C.3     1  UNL1        0.0000
     27 C          -2.1271   -0.4469    0.4579 C.3     1  UNL1        0.0000
     28 C           2.2413   -0.8743    1.4241 C.3     1  UNL1        0.0000
     29 C          -0.1879    1.0169    1.8330 C.3     1  UNL1        0.0000
     30 C          -2.1171   -0.5235    0.4575 C.3     1  UNL1        0.0000
     31 C          -0.1933    0.5873   -1.9960 C.ar    1  UNL1        0.0000
     32 N          -1.2915    2.9292    0.8279 N.ar    1  UNL1        0.0000
     33 N           0.8431    2.1903    1.7146 N.ar    1  UNL1        0.0000
     34 C          -0.0532   -0.3443    0.6964 C.ar    1  UNL1        0.0000
     35 C           0.2499    0.7235   -0.4697 C.ar    1  UNL1        0.0000
     36 H          -1.9669    0.0750    1.8948 H       1  UNL1        0.0000
     37 H           0.4454   -3.4423    1.2083 H       1  UNL1        0.0000
     38 H          -0.7202    2.1759    2.6411 H       1  UNL1        0.0000
     39 H           0.3645   -2.7939   -2.5787 H       1  UNL1        0.0000
     40 H          -2.0699   -1.4065    2.0604 H       1  UNL1        0.0000
     41 H           1.6334   -2.2687    1.2898 H       1  UNL1        0.0000
     42 H          -2.7288   -0.6599   -1.0641 H       1  UNL1        0.0000
     43 H          -0.6341    1.6238   -3.1071 H       1  UNL1        0.0000
     44 H           2.0165    1.4882   -0.6952 H       1  UNL1        0.0000
     45 H           2.4408   -1.3508    0.0552 H       1  UNL1        0.0000
     46 H          -3.1028   -1.3152    1.4786 H       1  UNL1        0.0000
     47 H           0.2419    0.1346   -3.9132 H       1  UNL1        0.0000
     48 H           3.2234   -0.7481   -1.1903 H       1  UNL1        0.0000
     49 H          -0.6585    0.6897    3.2706 H       1  UNL1        0.0000
     50 H          -0.6723   -2.0719    1.5569 H       1  UNL1        0.0000
     51 H          -1.1952   -2.2956   -1.7876 H       1  UNL1        0.0000
     52 H          -0.8920    2.9938   -0.6107 H       1  UNL1        0.0000
     53 H          -0.0930   -2.7986   -1.2541 H       1  UNL1        0.0000
     54 H          -1.0719    1.8130   -1.0196 H       1  UNL1        0.0000
     55 H           0.5560   -2.4787   -1.2217 H       1  UNL1        0.0000
     56 H           2.6521    0.6424    0.8713 H       1  UNL1        0.0000
     57 H           1.1715   -1.7671   -3.0228 H       1  UNL1        0.0000
     58 H          -1.4927   -1.1590   -2.4299 H       1  UNL1        0.0000
     59 H           0.8191    0.1019    2.5025 H       1  UNL1        0.0000
     60 H          -2.5718    1.8527   -0.2036 H       1  UNL1        0.0000
     61 H           1.1371    1.0844   -3.0208 H       1  UNL1        0.0000
     62 H           1.1750    1.1008   -3.0180 H       1  UNL1        0.0000
     63 H           1.7669    2.9027   -0.6891 H       1  UNL1        0.0000
     64 H           3.1488   -0.1110   -0.0654 H       1  UNL1        0.0000
     65 H          -1.3393   -3.8991    0.9013 H       1  UNL1        0.0000
     66 H          -1.6283    1.2542    2.2598 H       1  UNL1        0.0000
     67 H           2.2281    2.3810    1.1258 H       1  UNL1        0.0000
     68 EU          1.2689    2.1366    0.3150 Eu      1  UNL1        0.0000
@<TRIPOS>BOND
     1     1     2    2
     2     2     3   am
     3     3     4    1
     4     3     5    1
     5     5     6    1
     6     6     7    1
     7     2     8    1
     8     8     9   ar
     9     9    10   ar
    10     8    11   ar
    11    11    12   ar
    12    12    13   ar
    13    10    13   ar
    14    13    14   ar
    15    14    15   ar
    16    15    16   ar
    17    16    17   ar
    18    12    17   ar
    19    17    18   ar
    20    18    19   ar
    21    19    20    1
    22    20    21   ar
    23    21    22   ar
    24    22    23    1
    25    23    24    1
    26    23    25    1
    27    23    26    1
    28    26    27    1
    29    27    28    1
    30    28    29    1
    31    28    30    1
    32    22    31   ar
    33    28    31    1
    34    31    32   ar
    35    32    33   ar
    36    20    33   ar
    37    19    34   ar
    38    34    35   ar
    39    16    35   ar
    40     4    36    1
    41     4    37    1
    42     4    38    1
    43     5    39    1
    44     5    40    1
    45     6    41    1
    46     6    42    1
    47     7    43    1
    48     7    44    1
    49     7    45    1
    50     9    46    1
    51    10    47    1
    52    14    48    1
    53    15    49    1
    54    24    50    1
    55    24    51    1
    56    24    52    1
    57    25    53    1
    58    25    54    1
    59    25    55    1
    60    26    56    1
    61    26    57    1
    62    27    58    1
    63    27    59    1
    64    29    60    1
    65    29    61    1
    66    29    62    1
    67    30    63    1
    68    30    64    1
    69    30    65    1
    70    34    66    1
    71    35    67    1
    72    68     1    1
    73    68    33    1
    74    68    18    1
    75    68    11    1
@<TRIPOS>MOLECULE
*****
 68 75 0 0 0
SMALL
GASTEIGER

@<TRIPOS>ATOM
      1 O           1.5248   -0.5223   -0.6404 O.2     1  UNL1        0.0000
      2 C          -0.9267   -0.2077   -0.7684 C.2     1  UNL1        0.0000
      3 N          -1.2606   -0.8309    2.2863 N.am    1  UNL1        0.0000
      4 C          -1.1727   -0.3512    2.3717 C.3     1  UNL1        0.0000
      5 C          -0.8408   -0.8604    2.5901 C.3     1  UNL1        0.0000
      6 C           0.8884   -2.0851    2.0137 C.3     1  UNL1        0.0000
      7 C          -1.7757   -2.1788    0.0003 C.3     1  UNL1        0.0000
      8 C           0.0499    2.1427    0.3191 C.ar    1  UNL1        0.0000
      9 C           1.2455    0.8812    0.7559 C.ar    1  UNL1        0.0000
     10 C          -0.0827   -0.2441   -3.7895 C.ar    1  UNL1        0.0000
     11 N           0.4897    2.3073   -0.3048 N.ar    1  UNL1        0.0000
     12 C           0.5373    2.0470   -2.0842 C.ar    1  UNL1        0.0000
     13 C          -1.5103    0.4207   -3.0954 C.ar    1  UNL1        0.0000
     14 C           0.1664   -2.3044    0.1787 C.ar    1  UNL1        0.0000
     15 C           0.0686   -2.3434    0.1768 C.ar    1  UNL1        0.0000
     16 C           0.1951   -1.3784   -1.9948 C.ar    1  UNL1        0.0000
     17 C           1.7257   -1.1642   -1.8225 C.ar    1  UNL1        0.0000
     18 N           0.5473   -0.5143    1.2998 N.ar    1  UNL1        0.0000
     19 C          -0.1420   -0.6217    0.9248 C.ar    1  UNL1        0.0000
     20 C          -0.2200   -0.5923    0.9514 C.ar    1  UNL1        0.0000
     21 N          -1.9925    0.7889   -1.0808 N.ar    1  UNL1        0.0000
     22 C          -0.2714    0.5714   -2.1098 C.ar    1  UNL1        0.0000
     23 C          -0.8593   -2.6798   -1.4923 C.3     1  UNL1        0.0000
     24 C          -1.3767    1.1601    0.5289 C.3     1  UNL1        0.0000
     25 C           1.6224    0.5392   -1.7351 C.3     1  UNL1        0.0000
     26 C          -1.4192    1.1075    0.5651 C.3     1  UNL1        0.0000
     27 C          -2.1271   -0.4469    0.4579 C.3     1  UNL1        0.0000
     28 C           2.2413   -0.8743    1.4241 C.3     1  UNL1        0.0000
     29 C          -0.1879    1.0169    1.8330 C.3     1  UNL1        0.0000
     30 C          -2.1171   -0.5235    0.4575 C.3     1  UNL1        0.0000
     31 C          -0.1933    0.5873   -1.9960 C.ar    1  UNL1        0.0000
     32 N          -1.2915    2.9292    0.8279 N.ar    1  UNL1        0.0000
     33 N           0.8431    2.1903    1.7146 N.ar    1  UNL1        0.0000
     34 C          -0.0532   -0.3443    0.6964 C.ar    1  UNL1        0.0000
     35 C           0.2499    0.7235   -0.4697 C.ar    1  UNL1        0.0000
     36 H          -1.9669    0.0750    1.8948 H       1  UNL1        0.0000
     37 H           0.4454   -3.4423    1.2083 H       1  UNL1        0.0000
     38 H          -0.7202    2.1759    2.6411 H       1  UNL1        0.0000
     39 H           0.3645   -2.7939   -2.5787 H       1  UNL1        0.0000
     40 H          -2.0699   -1.4065    2.0604 H       1  UNL1        0.0000
     41 H           1.6334   -2.2687    1.2898 H       1  UNL1        0.0000
     42 H          -2.7288   -0.6599   -1.0641 H       1  UNL1        0.0000
     43 H          -0.6341    1.6238   -3.1071 H       1  UNL1        0.0000
     44 H           2.0165    1.4882   -0.6952 H       1  UNL1        0.0000
     45 H           2.4408   -1.3508    0.0552 H       1  UNL1        0.0000
     46 H          -3.1028   -1.3152    1.4786 H       1  UNL1        0.0000
     47 H           0.2419    0.1346   -3.9132 H       1  UNL1        0.0000
     48 H           3.2234   -0.7481   -1.1903 H       1  UNL1        0.0000
     49 H          -0.6585    0.6897    3.2706 H       1  UNL1        0.0000
     50 H          -0.6723   -2.0719    1.5569 H       1  UNL1        0.0000
     51 H          -1.1952   -2.2956   -1.7876 H       1  UNL1        0.0000
     52 H          -0.8920    2.9938   -0.6107 H       1  UNL1        0.0000
     53 H          -0.0930   -2.7986   -1.2541 H       1  UNL1        0.0000
     54 H          -1.0719    1.8130   -1.0196 H       1  UNL1        0.0000
     55 H           0.5560   -2.4787   -1.2217 H       1  UNL1        0.0000
     56 H           2.6521    0.6424    0.8713 H       1  UNL1        0.0000
     57 H           1.1715   -1.7671   -3.0228 H       1  UNL1        0.0000
     58 H          -1.4927   -1.1590   -2.4299 H       1  UNL1        0.0000
     59 H           0.8191    0.1019    2.5025 H       1  UNL1        0.0000
     60 H          -2.5718    1.8527   -0.2036 H       1  UNL1        0.0000
     61 H           1.1371    1.0844   -3.0208 H       1  UNL1        0.0000
     62 H           1.1750    1.1008   -3.0180 H       1  UNL1        0.0000
     63 H           1.7669    2.9027   -0.6891 H       1  UNL1        0.0000
     64 H           3.1488   -0.1110   -0.0654 H       1  UNL1        0.0000
     65 H          -1.3393   -3.8991    0.9013 H       1  UNL1        0.0000
     66 H          -1.6283    1.2542    2.2598 H       1  UNL1        0.0000
     67 H           2.2281    2.3810    1.1258 H       1  UNL1        0.0000
     68 EU          1.2689    2.1366    0.3150 Eu      1  UNL1        0.0000
@<TRIPOS>BOND
     1     1     2    2
     2     2     3   am
     3     3     4    1
     4     3     5    1
     5     5     6    1
     6     6     7    1
     7     2     8    1
     8     8     9   ar
     9     9    10   ar
    10     8    11   ar
    11    11    12   ar
    12    12    13   ar
    13    10    13   ar
    14    13    14   ar
    15    14    15   ar
    16    15    16   ar
    17    16    17   ar
    18    12    17   ar
    19    17    18   ar
    20    18    19   ar
    21    19    20    1
    22    20    21   ar
    23    21    22   ar
    24    22    23    1
    25    23    24    1
    26    23    25    1
    27    23    26    1
    28    26    27    1
    29    27    28    1
    30    28    29    1
    31    28    30    1
    32    22    31   ar
    33    28    31    1
    34    31    32   ar
    35    32    33   ar
    36    20    33   ar
    37    19    34   ar
    38    34    35   ar
    39    16    35   ar
    40     4    36    1
    41     4    37    1
    42     4    38    1
    43     5    39    1
    44     5    40    1
    45     6    41    1
    46     6    42    1
    47     7    43    1
    48     7    44    1
    49     7    45    1
    50     9    46    1
    51    10    47    1
    52    14    48    1
    53    15    49    1
    54    24    50    1
    55    24    51    1
    56    24    52    1
    57    25    53    1
    58    25    54    1
    59    25    55    1
    60    26    56    1
    61    26    57    1
    62    27    58    1
    63    27    59    1
    64    29    60    1
    65    29    61    1
    66    29    62    1
    67    30    63    1
    68    30    64    1
    69    30    65    1
    70    34    66    1
    71    35    67    1
    72    68     1    1
    73    68    33    1
    74    68    18    1
    75    68    11    1
@<TRIPOS>MOLECULE
*****
 68 75 0 0 0
SMALL
GASTEIGER

@<TRIPOS>ATOM
      1 O           1.5248   -0.5223   -0.6404 O.2     1  UNL1        0.0000
      2 C          -0.9267   -0.2077   -0.7684 C.2     1  UNL1        0.0000
      3 N          -1.2606   -0.8309    2.2863 N.am    1  UNL1        0.0000
      4 C          -1.1727   -0.3512    2.3717 C.3     1  UNL1        0.0000
      5 C          -0.8408   -0.8604    2.5901 C.3     1  UNL1        0.0000
      6 C           0.8884   -2.0851    2.0137 C.3     1  UNL1        0.0000
      7 C          -1.7757   -2.1788    0.0003 C.3     1  UNL1        0.0000
      8 C           0.0499    2.1427    0.3191 C.ar    1  UNL1        0.0000
      9 C           1.2455    0.8812    0.7559 C.ar    1  UNL1        0.0000
     10 C          -0.0827   -0.2441   -3.7895 C.ar    1  UNL1        0.0000
     11 N           0.4897    2.3073   -0.3048 N.ar    1  UNL1        0.0000
     12 C           0.5373    2.0470   -2.0842 C.ar    1  UNL1        0.0000
     13 C          -1.5103    0.4207   -3.0954 C.ar    1  UNL1        0.0000
     14 C           0.1664   -2.3044    0.1787 C.ar    1  UNL1        0.0000
     15 C           0.0686   -2.3434    0.1768 C.ar    1  UNL1        0.0000
     16 C           0.1951   -1.3784   -1.9948 C.ar    1  UNL1        0.0000
     17 C           1.7257   -1.1642   -1.8225 C.ar    1  UNL1        0.0000
     18 N           0.5473   -0.5143    1.2998 N.ar    1  UNL1        0.0000
     19 C          -0.1420   -0.6217    0.9248 C.ar    1  UNL1        0.0000
     20 C          -0.2200   -0.5923    0.9514 C.ar    1  UNL1        0.0000
     21 N          -1.9925    0.7889   -1.0808 N.ar    1  UNL1        0.0000
     22 C          -0.2714    0.5714   -2.1098 C.ar    1  UNL1        0.0000
     23 C          -0.8593   -2.6798   -1.4923 C.3     1  UNL1        0.0000
     24 C          -1.3767    1.1601    0.5289 C.3     1  UNL1        0.0000
     25 C           1.6224    0.5392   -1.7351 C.3     1  UNL1        0.0000
     26 C          -1.4192    1.1075    0.5651 C.3     1  UNL1        0.0000
     27 C          -2.1271   -0.4469    0.4579 C.3     1  UNL1        0.0000
     28 C           2.2413   -0.8743    1.4241 C.3     1  UNL1        0.0000
     29 C          -0.1879    1.0169    1.8330 C.3     1  UNL1        0.0000
     30 C          -2.1171   -0.5235    0.4575 C.3     1  UNL1        0.0000
     31 C          -0.1933    0.5873   -1.9960 C.ar    1  UNL1        0.0000
     32 N          -1.2915    2.9292    0.8279 N.ar    1  UNL1        0.0000
     33 N           0.8431    2.1903    1.7146 N.ar    1  UNL1        0.0000
     34 C          -0.0532   -0.3443    0.6964 C.ar    1  UNL1        0.0000
     35 C           0.2499    0.7235   -0.4697 C.ar    1  UNL1        0.0000
     36 H          -1.9669    0.0750    1.8948 H       1  UNL1        0.0000
     37 H           0.4454   -3.4423    1.2083 H       1  UNL1        0.0000
     38 H          -0.7202    2.1759    2.6411 H       1  UNL1        0.0000
     39 H           0.3645   -2.7939   -2.5787 H       1  UNL1        0.0000
     40 H          -2.0699   -1.4065    2.0604 H       1  UNL1        0.0000
     41 H           1.6334   -2.2687    1.2898 H       1  UNL1        0.0000
     42 H          -2.7288   -0.6599   -1.0641 H       1  UNL1        0.0000
     43 H          -0.6341    1.6238   -3.1071 H       1  UNL1        0.0000
     44 H           2.0165    1.4882   -0.6952 H       1  UNL1        0.0000
     45 H           2.4408   -1.3508    0.0552 H       1  UNL1        0.0000
     46 H          -3.1028   -1.3152    1.4786 H       1  UNL1        0.0000
     47 H           0.2419    0.1346   -3.9132 H       1  UNL1        0.0000
     48 H           3.2234   -0.7481   -1.1903 H       1  UNL1        0.0000
     49 H          -0.6585    0.6897    3.2706 H       1  UNL1        0.0000
     50 H          -0.6723   -2.0719    1.5569 H       1  UNL1        0.0000
     51 H          -1.1952   -2.2956   -1.7876 H       1  UNL1        0.0000
     52 H          -0.8920    2.9938   -0.6107 H       1  UNL1        0.0000
     53 H          -0.0930   -2.7986   -1.2541 H       1  UNL1        0.0000
     54 H          -1.0719    1.8130   -1.0196 H       1  UNL1        0.0000
     55 H           0.5560   -2.4787   -1.2217 H       1  UNL1        0.0000
     56 H           2.6521    0.6424    0.8713 H       1  UNL1        0.0000
     57 H           1.1715   -1.7671   -3.0228 H       1  UNL1        0.0000
     58 H          -1.4927   -1.1590   -2.4299 H       1  UNL1        0.0000
     59 H           0.8191    0.1019    2.5025 H       1  UNL1        0.0000
     60 H          -2.5718    1.8527   -0.2036 H       1  UNL1        0.0000
     61 H           1.1371    1.0844   -3.0208 H       1  UNL1        0.0000
     62 H           1.1750    1.1008   -3.0180 H       1  UNL1        0.0000
     63 H           1.7669    2.9027   -0.6891 H       1  UNL1        0.0000
     64 H           3.1488   -0.1110   -0.0654 H       1  UNL1        0.0000
     65 H          -1.3393   -3.8991    0.9013 H       1  UNL1        0.0000
     66 H          -1.6283    1.2542    2.2598 H       1  UNL1        0.0000
     67 H           2.2281    2.3810    1.1258 H       1  UNL1        0.0000
     68 EU          1.2689    2.1366    0.3150 Eu      1  UNL1        0.0000
@<TRIPOS>BOND
     1     1     2    2
     2     2     3   am
     3     3     4    1
     4     3     5    1
     5     5     6    1
     6     6     7    1
     7     2     8    1
     8     8     9   ar
     9     9    10   ar
    10     8    11   ar
    11    11    12   ar
    12    12    13   ar
    13    10    13   ar
    14    13    14   ar
    15    14    15   ar
    16    15    16   ar
    17    16    17   ar
    18    12    17   ar
    19    17    18   ar
    20    18    19   ar
    21    19    20    1
    22    20    21   ar
    23    21    22   ar
    24    22    23    1
    25    23    24    1
    26    23    25    1
    27    23    26    1
    28    26    27    1
    29    27    28    1
    30    28    29    1
    31    28    30    1
    32    22    31   ar
    33    28    31    1
    34    31    32   ar
    35    32    33   ar
    36    20    33   ar
    37    19    34   ar
    38    34    35   ar
    39    16    35   ar
    40     4    36    1
    41     4    37    1
    42     4    38    1
    43     5    39    1
    44     5    40    1
    45     6    41    1
    46     6    42    1
    47     7    43    1
    48     7    44    1
    49     7    45    1
    50     9    46    1
    51    10    47    1
    52    14    48    1
    53    15    49    1
    54    24    50    1
    55    24    51    1
    56    24    52    1
    57    25    53    1
    58    25    54    1
    59    25    55    1
    60    26    56    1
    61    26    57    1
    62    27    58    1
    63    27    59    1
    64    29    60    1
    65    29    61    1
    66    29    62    1
    67    30    63    1
    68    30    64    1
    69    30    65    1
    70    34    66    1
    71    35    67    1
    72    68     1    1
    73    68    33    1
    74    68    18    1
    75    68    11    1
@<TRIPOS>MOLECULE
*****
 68 75 0 0 0
SMALL
GASTEIGER

@<TRIPOS>ATOM
      1 O           1.5248   -0.5223   -0.6404 O.2     1  UNL1        0.0000
      2 C          -0.9267   -0.2077   -0.7684 C.2     1  UNL1        0.0000
      3 N          -1.2606   -0.8309    2.2863 N.am    1  UNL1        0.0000
      4 C          -1.1727   -0.3512    2.3717 C.3     1  UNL1        0.0000
      5 C          -0.8408   -0.8604    2.5901 C.3     1  UNL1        0.0000
      6 C           0.8884   -2.0851    2.0137 C.3     1  UNL1        0.0000
      7 C          -1.7757   -2.1788    0.0003 C.3     1  UNL1        0.0000
      8 C           0.0499    2.1427    0.3191 C.ar    1  UNL1        0.0000
      9 C           1.2455    0.8812    0.7559 C.ar    1  UNL1        0.0000
     10 C          -0.0827   -0.2441   -3.7895 C.ar    1  UNL1        0.0000
     11 N           0.4897    2.3073   -0.3048 N.ar    1  UNL1        0.0000
     12 C           0.5373    2.0470   -2.0842 C.ar    1  UNL1        0.0000
     13 C          -1.5103    0.4207   -3.0954 C.ar    1  UNL1        0.0000
     14 C           0.1664   -2.3044    0.1787 C.ar    1  UNL1        0.0000
     15 C           0.0686   -2.3434    0.1768 C.ar    1  UNL1        0.0000
     16 C           0.1951   -1.3784   -1.9948 C.ar    1  UNL1        0.0000
     17 C           1.7257   -1.1642   -1.8225 C.ar    1  UNL1        0.0000
     18 N           0.5473   -0.5143    1.2998 N.ar    1  UNL1        0.0000
     19 C          -0.1420   -0.6217    0.9248 C.ar    1  UNL1        0.0000
     20 C          -0.2200   -0.5923    0.9514 C.ar    1  UNL1        0.0000
     21 N          -1.9925    0.7889   -1.0808 N.ar    1  UNL1        0.0000
     22 C          -0.2714    0.5714   -2.1098 C.ar    1  UNL1        0.0000
     23 C          -0.8593   -2.6798   -1.4923 C.3     1  UNL1        0.0000
     24 C          -1.3767    1.1601    0.5289 C.3     1  UNL1        0.0000
     25 C           1.6224    0.5392   -1.7351 C.3     1  UNL1        0.0000
     26 C          -1.4192    1.1075    0.5651 C.3     1  UNL1        0.0000
     27 C          -2.1271   -0.4469    0.4579 C.3     1  UNL1        0.0000
     28 C           2.2413   -0.8743    1.4241 C.3     1  UNL1        0.0000
     29 C          -0.1879    1.0169    1.8330 C.3     1  UNL1        0.0000
     30 C          -2.1171   -0.5235    0.4575 C.3     1  UNL1        0.0000
     31 C          -0.1933    0.5873   -1.9960 C.ar    1  UNL1        0.0000
     32 N          -1.2915    2.9292    0.8279 N.ar    1  UNL1        0.0000
     33 N           0.8431    2.1903    1.7146 N.ar    1  UNL1        0.0000
     34 C          -0.0532   -0.3443    0.6964 C.ar    1  UNL1        0.0000
     35 C           0.2499    0.7235   -0.4697 C.ar    1  UNL1        0.0000
     36 H          -1.9669    0.0750    1.8948 H       1  UNL1        0.0000
     37 H           0.4454   -3.4423    1.2083 H       1  UNL1        0.0000
     38 H          -0.7202    2.1759    2.6411 H       1  UNL1        0.0000
     39 H           0.3645   -2.7939   -2.5787 H       1  UNL1        0.0000
     40 H          -2.0699   -1.4065    2.0604 H       1  UNL1        0.0000
     41 H           1.6334   -2.2687    1.2898 H       1  UNL1        0.0000
     42 H          -2.7288   -0.6599   -1.0641 H       1  UNL1        0.0000
     43 H          -0.6341    1.6238   -3.1071 H       1  UNL1        0.0000
     44 H           2.0165    1.4882   -0.6952 H       1  UNL1        0.0000
     45 H           2.4408   -1.3508    0.0552 H       1  UNL1        0.0000
     46 H          -3.1028   -1.3152    1.4786 H       1  UNL1        0.0000
     47 H           0.2419    0.1346   -3.9132 H       1  UNL1        0.0000
     48 H           3.2234   -0.7481   -1.1903 H       1  UNL1        0.0000
     49 H          -0.6585    0.6897    3.2706 H       1  UNL1        0.0000
     50 H          -0.6723   -2.0719    1.5569 H       1  UNL1        0.0000
     51 H          -1.1952   -2.2956   -1.7876 H       1  UNL1        0.0000
     52 H          -0.8920    2.9938   -0.6107 H       1  UNL1        0.0000
     53 H          -0.0930   -2.7986   -1.2541 H       1  UNL1        0.0000
     54 H          -1.0719    1.8130   -1.0196 H       1  UNL1        0.0000
     55 H           0.5560   -2.4787   -1.2217 H       1  UNL1        0.0000
     56 H           2.6521    0.6424    0.8713 H       1  UNL1        0.0000
     57 H           1.1715   -1.7671   -3.0228 H       1  UNL1        0.0000
     58 H          -1.4927   -1.1590   -2.4299 H       1  UNL1        0.0000
     59 H           0.8191    0.1019    2.5025 H       1  UNL1        0.0000
     60 H          -2.5718    1.8527   -0.2036 H       1  UNL1        0.0000
     61 H           1.1371    1.0844   -3.0208 H       1  UNL1        0.0000
     62 H           1.1750    1.1008   -3.0180 H       1  UNL1        0.0000
     63 H           1.7669    2.9027   -0.6891 H       1  UNL1        0.0000
     64 H           3.1488   -0.1110   -0.0654 H       1  UNL1        0.0000
     65 H          -1.3393   -3.8991    0.9013 H       1  UNL1        0.0000
     66 H          -1.6283    1.2542    2.2598 H       1  UNL1        0.0000
     67 H           2.2281    2.3810    1.1258 H       1  UNL1        0.0000
     68 EU          1.2689    2.1366    0.3150 Eu      1  UNL1        0.0000
@<TRIPOS>BOND
     1     1     2    2
     2     2     3   am
     3     3     4    1
     4     3     5    1
     5     5     6    1
     6     6     7    1
     7     2     8    1
     8     8     9   ar
     9     9    10   ar
    10     8    11   ar
    11    11    12   ar
    12    12    13   ar
    13    10    13   ar
    14    13    14   ar
    15    14    15   ar
    16    15    16   ar
    17    16    17   ar
    18    12    17   ar
    19    17    18   ar
    20    18    19   ar
    21    19    20    1
    22    20    21   ar
    23    21    22   ar
    24    22    23    1
    25    23    24    1
    26    23    25    1
    27    23    26    1
    28    26    27    1
    29    27    28    1
    30    28    29    1
    31    28    30    1
    32    22    31   ar
    33    28    31    1
    34    31    32   ar
    35    32    33   ar
    36    20    33   ar
    37    19    34   ar
    38    34    35   ar
    39    16    35   ar
    40     4    36    1
    41     4    37    1
    42     4    38    1
    43     5    39    1
    44     5    40    1
    45     6    41    1
    46     6    42    1
    47     7    43    1
    48     7    44    1
    49     7    45    1
    50     9    46    1
    51    10    47    1
    52    14    48    1
    53    15    49    1
    54    24    50    1
    55    24    51    1
    56    24    52    1
    57    25    53    1
    58    25    54    1
    59    25    55    1
    60    26    56    1
    61    26    57    1
    62    27    58    1
    63    27    59    1
    64    29    60    1
    65    29    61    1
    66    29    62    1
    67    30    63    1
    68    30    64    1
    69    30    65    1
    70    34    66    1
    71    35    67    1
    72    68     1    1
    73    68    33    1
    74    68    18    1
    75    68    11    1
@<TRIPOS>MOLECULE
*****
 68 75 0 0 0
SMALL
GASTEIGER

@<TRIPOS>ATOM
      1 O           1.5248   -0.5223   -0.6404 O.2     1  UNL1        0.0000
      2 C          -0.9267   -0.2077   -0.7684 C.2     1  UNL1        0.0000
      3 N          -1.2606   -0.8309    2.2863 N.am    1  UNL1        0.0000
      4 C          -1.1727   -0.3512    2.3717 C.3     1  UNL1        0.0000
      5 C          -0.8408   -0.8604    2.5901 C.3     1  UNL1        0.0000
      6 C           0.8884   -2.0851    2.0137 C.3     1  UNL1        0.0000
      7 C          -1.7757   -2.1788    0.0003 C.3     1  UNL1        0.0000
      8 C           0.0499    2.1427    0.3191 C.ar    1  UNL1        0.0000
      9 C           1.2455    0.8812    0.7559 C.ar    1  UNL1        0.0000
     10 C          -0.0827   -0.2441   -3.7895 C.ar    1  UNL1        0.0000
     11 N           0.4897    2.3073   -0.3048 N.ar    1  UNL1        0.0000
     12 C           0.5373    2.0470   -2.0842 C.ar    1  UNL1        0.0000
     13 C          -1.5103    0.4207   -3.0954 C.ar    1  UNL1        0.0000
     14 C           0.1664   -2.3044    0.1787 C.ar    1  UNL1        0.0000
     15 C           0.0686   -2.3434    0.1768 C.ar    1  UNL1        0.0000
     16 C           0.1951   -1.3784   -1.9948 C.ar    1  UNL1        0.0000
     17 C           1.7257   -1.1642   -1.8225 C.ar    1  UNL1        0.0000
     18 N           0.5473   -0.5143    1.2998 N.ar    1  UNL1        0.0000
     19 C          -0.1420   -0.6217    0.9248 C.ar    1  UNL1        0.0000
     20 C          -0.2200   -0.5923    0.9514 C.ar    1  UNL1        0.0000
     21 N          -1.9925    0.7889   -1.0808 N.ar    1  UNL1        0.0000
     22 C          -0.2714    0.5714   -2.1098 C.ar    1  UNL1        0.0000
     23 C          -0.8593   -2.6798   -1.4923 C.3     1  UNL1        0.0000
     24 C          -1.3767    1.1601    0.5289 C.3     1  UNL1        0.0000
     25 C           1.6224    0.5392   -1.7351 C.3     1  UNL1        0.0000
     26 C          -1.4192    1.1075    0.5651 C.3     1  UNL1        0.0000
     27 C          -2.1271   -0.4469    0.4579 C.3     1  UNL1        0.0000
     28 C           2.2413   -0.8743    1.4241 C.3     1  UNL1        0.0000
     29 C          -0.1879    1.0169    1.8330 C.3     1  UNL1        0.0000
     30 C          -2.1171   -0.5235    0.4575 C.3     1  UNL1        0.0000
     31 C          -0.1933    0.5873   -1.9960 C.ar    1  UNL1        0.0000
     32 N          -1.2915    2.9292    0.8279 N.ar    1  UNL1        0.0000
     33 N           0.8431    2.1903    1.7146 N.ar    1  UNL1        0.0000
     34 C          -0.0532   -0.3443    0.6964 C.ar    1  UNL1        0.0000
     35 C           0.2499    0.7235   -0.4697 C.ar    1  UNL1        0.0000
     36 H          -1.9669    0.0750    1.8948 H       1  UNL1        0.0000
     37 H           0.4454   -3.4423    1.2083 H       1  UNL1        0.0000
     38 H          -0.7202    2.1759    2.6411 H       1  UNL1        0.0000
     39 H           0.3645   -2.7939   -2.5787 H       1  UNL1        0.0000
     40 H          -2.0699   -1.4065    2.0604 H       1  UNL1        0.0000
     41 H           1.6334   -2.2687    1.2898 H       1  UNL1        0.0000
     42 H          -2.7288   -0.6599   -1.0641 H       1  UNL1        0.0000
     43 H          -0.6341    1.6238   -3.1071 H       1  UNL1        0.0000
     44 H           2.0165    1.4882   -0.6952 H       1  UNL1        0.0000
     45 H           2.4408   -1.3508    0.0552 H       1  UNL1        0.0000
     46 H          -3.1028   -1.3152    1.4786 H       1  UNL1        0.0000
     47 H           0.2419    0.1346   -3.9132 H       1  UNL1        0.0000
     48 H           3.2234   -0.7481   -1.1903 H       1  UNL1        0.0000
     49 H          -0.6585    0.6897    3.2706 H       1  UNL1        0.0000
     50 H          -0.6723   -2.0719    1.5569 H       1  UNL1        0.0000
     51 H          -1.1952   -2.2956   -1.7876 H       1  UNL1        0.0000
     52 H          -0.8920    2.9938   -0.6107 H       1  UNL1        0.0000
     53 H          -0.0930   -2.7986   -1.2541 H       1  UNL1        0.0000
     54 H          -1.0719    1.8130   -1.0196 H       1  UNL1        0.0000
     55 H           0.5560   -2.4787   -1.2217 H       1  UNL1        0.0000
     56 H           2.6521    0.6424    0.8713 H       1  UNL1        0.0000
     57 H           1.1715   -1.7671   -3.0228 H       1  UNL1        0.0000
     58 H          -1.4927   -1.1590   -2.4299 H       1  UNL1        0.0000
     59 H           0.8191    0.1019    2.5025 H       1  UNL1        0.0000
     60 H          -2.5718    1.8527   -0.2036 H       1  UNL1        0.0000
     61 H           1.1371    1.0844   -3.0208 H       1  UNL1        0.0000
     62 H           1.1750    1.1008   -3.0180 H       1  UNL1        0.0000
     63 H           1.7669    2.9027   -0.6891 H       1  UNL1        0.0000
     64 H           3.1488   -0.1110   -0.0654 H       1  UNL1        0.0000
     65 H          -1.3393   -3.8991    0.9013 H       1  UNL1        0.0000
     66 H          -1.6283    1.2542    2.2598 H       1  UNL1        0.0000
     67 H           2.2281    2.3810    1.1258 H       1  UNL1        0.0000
     68 EU          1.2689    2.1366    0.3150 Eu      1  UNL1        0.0000
@<TRIPOS>BOND
     1     1     2    2
     2     2     3   am
     3     3     4    1
     4     3     5    1
     5     5     6    1
     6     6     7    1
     7     2     8    1
     8     8     9   ar
     9     9    10   ar
    10     8    11   ar
    11    11    12   ar
    12    12    13   ar
    13    10    13   ar
    14    13    14   ar
    15    14    15   ar
    16    15    16   ar
    17    16    17   ar
    18    12    17   ar
    19    17    18   ar
    20    18    19   ar
    21    19    20    1
    22    20    21   ar
    23    21    22   ar
    24    22    23    1
    25    23    24    1
    26    23    25    1
    27    23    26    1
    28    26    27    1
    29    27    28    1
    30    28    29    1
    31    28    30    1
    32    22    31   ar
    33    28    31    1
    34    31    32   ar
    35    32    33   ar
    36    20    33   ar
    37    19    34   ar
    38    34    35   ar
    39    16    35   ar
    40     4    36    1
    41     4    37    1
    42     4    38    1
    43     5    39    1
    44     5    40    1
    45     6    41    1
    46     6    42    1
    47     7    43    1
    48     7    44    1
    49     7    45    1
    50     9    46    1
    51    10    47    1
    52    14    48    1
    53    15    49    1
    54    24    50    1
    55    24    51    1
    56    24    52    1
    57    25    53    1
    58    25    54    1
    59    25    55    1
    60    26    56    1
    61    26    57    1
    62    27    58    1
    63    27    59    1
    64    29    60    1
    65    29    61    1
    66    29    62    1
    67    30    63    1
    68    30    64    1
    69    30    65    1
    70    34    66    1
    71    35    67    1
    72    68     1    1
    73    68    33    1
    74    68    18    1
    75    68    11    1
@<TRIPOS>MOLECULE
*****
 68 75 0 0 0
SMALL
GASTEIGER

@<TRIPOS>ATOM
      1 O           1.5248   -0.5223   -0.6404 O.2     1  UNL1        0.0000
      2 C          -0.9267   -0.2077   -0.7684 C.2     1  UNL1        0.0000
      3 N          -1.2606   -0.8309    2.2863 N.am    1  UNL1        0.0000
      4 C          -1.1727   -0.3512    2.3717 C.3     1  UNL1        0.0000
      5 C          -0.8408   -0.8604    2.5901 C.3     1  UNL1        0.0000
      6 C           0.8884   -2.0851    2.0137 C.3     1  UNL1        0.0000
      7 C          -1.7757   -2.1788    0.0003 C.3     1  UNL1        0.0000
      8 C           0.0499    2.1427    0.3191 C.ar    1  UNL1        0.0000
      9 C           1.2455    0.8812    0.7559 C.ar    1  UNL1        0.0000
     10 C          -0.0827   -0.2441   -3.7895 C.ar    1  UNL1        0.0000
     11 N           0.4897    2.3073   -0.3048 N.ar    1  UNL1        0.0000
     12 C           0.5373    2.0470   -2.0842 C.ar    1  UNL1        0.0000
     13 C          -1.5103    0.4207   -3.0954 C.ar    1  UNL1        0.0000
     14 C           0.1664   -2.3044    0.1787 C.ar    1  UNL1        0.0000
     15 C           0.0686   -2.3434    0.1768 C.ar    1  UNL1        0.0000
     16 C           0.1951   -1.3784   -1.9948 C.ar    1  UNL1        0.0000
     17 C           1.7257   -1.1642   -1.8225 C.ar    1  UNL1        0.0000
     18 N           0.5473   -0.5143    1.2998 N.ar    1  UNL1        0.0000
     19 C          -0.1420   -0.6217    0.9248 C.ar    1  UNL1        0.0000
     20 C          -0.2200   -0.5923    0.9514 C.ar    1  UNL1        0.0000
     21 N          -1.9925    0.7889   -1.0808 N.ar    1  UNL1        0.0000
     22 C          -0.2714    0.5714   -2.1098 C.ar    1  UNL1        0.0000
     23 C          -0.8593   -2.6798   -1.4923 C.3     1  UNL1        0.0000
     24 C          -1.3767    1.1601    0.5289 C.3     1  UNL1        0.0000
     25 C           1.6224    0.5392   -1.7351 C.3     1  UNL1        0.0000
     26 C          -1.4192    1.1075    0.5651 C.3     1  UNL1        0.0000
     27 C          -2.1271   -0.4469    0.4579 C.3     1  UNL1        0.0000
     28 C           2.2413   -0.8743    1.4241 C.3     1  UNL1        0.0000
     29 C          -0.1879    1.0169    1.8330 C.3     1  UNL1        0.0000
     30 C          -2.1171   -0.5235    0.4575 C.3     1  UNL1        0.0000
     31 C          -0.1933    0.5873   -1.9960 C.ar    1  UNL1        0.0000
     32 N          -1.2915    2.9292    0.8279 N.ar    1  UNL1        0.0000
     33 N           0.8431    2.1903    1.7146 N.ar    1  UNL1        0.0000
     34 C          -0.0532   -0.3443    0.6964 C.ar    1  UNL1        0.0000
     35 C           0.2499    0.7235   -0.4697 C.ar    1  UNL1        0.0000
     36 H          -1.9669    0.0750    1.8948 H       1  UNL1        0.0000
     37 H           0.4454   -3.4423    1.2083 H       1  UNL1        0.0000
     38 H          -0.7202    2.1759    2.6411 H       1  UNL1        0.0000
     39 H           0.3645   -2.7939   -2.5787 H       1  UNL1        0.0000
     40 H          -2.0699   -1.4065    2.0604 H       1  UNL1        0.0000
     41 H           1.6334   -2.2687    1.2898 H       1  UNL1        0.0000
     42 H          -2.7288   -0.6599   -1.0641 H       1  UNL1        0.0000
     43 H          -0.6341    1.6238   -3.1071 H       1  UNL1        0.0000
     44 H           2.0165    1.4882   -0.6952 H       1  UNL1        0.0000
     45 H           2.4408   -1.3508    0.0552 H       1  UNL1        0.0000
     46 H          -3.1028   -1.3152    1.4786 H       1  UNL1        0.0000
     47 H           0.2419    0.1346   -3.9132 H       1  UNL1        0.0000
     48 H           3.2234   -0.7481   -1.1903 H       1  UNL1        0.0000
     49 H          -0.6585    0.6897    3.2706 H       1  UNL1        0.0000
     50 H          -0.6723   -2.0719    1.5569 H       1  UNL1        0.0000
     51 H          -1.1952   -2.2956   -1.7876 H       1  UNL1        0.0000
     52 H          -0.8920    2.9938   -0.6107 H       1  UNL1        0.0000
     53 H          -0.0930   -2.7986   -1.2541 H       1  UNL1        0.0000
     54 H          -1.0719    1.8130   -1.0196 H       1  UNL1        0.0000
     55 H           0.5560   -2.4787   -1.2217 H       1  UNL1        0.0000
     56 H           2.6521    0.6424    0.8713 H       1  UNL1        0.0000
     57 H           1.1715   -1.7671   -3.0228 H       1  UNL1        0.0000
     58 H          -1.4927   -1.1590   -2.4299 H       1  UNL1        0.0000
     59 H           0.8191    0.1019    2.5025 H       1  UNL1        0.0000
     60 H          -2.5718    1.8527   -0.2036 H       1  UNL1        0.0000
     61 H           1.1371    1.0844   -3.0208 H       1  UNL1        0.0000
     62 H           1.1750    1.1008   -3.0180 H       1  UNL1        0.0000
     63 H           1.7669    2.9027   -0.6891 H       1  UNL1        0.0000
     64 H           3.1488   -0.1110   -0.0654 H       1  UNL1        0.0000
     65 H          -1.3393   -3.8991    0.9013 H       1  UNL1        0.0000
     66 H          -1.6283    1.2542    2.2598 H       1  UNL1        0.0000
     67 H           2.2281    2.3810    1.1258 H       1  UNL1        0.0000
     68 EU          1.2689    2.1366    0.3150 Eu      1  UNL1        0.0000
@<TRIPOS>BOND
     1     1     2    2
     2     2     3   am
     3     3     4    1
     4     3     5    1
     5     5     6    1
     6     6     7    1
     7     2     8    1
     8     8     9   ar
     9     9    10   ar
    10     8    11   ar
    11    11    12   ar
    12    12    13   ar
    13    10    13   ar
    14    13    14   ar
    15    14    15   ar
    16    15    16   ar
    17    16    17   ar
    18    12    17   ar
    19    17    18   ar
    20    18    19   ar
    21    19    20    1
    22    20    21   ar
    23    21    22   ar
    24    22    23    1
    25    23    24    1
    26    23    25    1
    27    23    26    1
    28    26    27    1
    29    27    28    1
    30    28    29    1
    31    28    30    1
    32    22    31   ar
    33    28    31    1
    34    31    32   ar
    35    32    33   ar
    36    20    33   ar
    37    19    34   ar
    38    34    35   ar
    39    16    35   ar
    40     4    36    1
    41     4    37    1
    42     4    38    1
    43     5    39    1
    44     5    40    1
    45     6    41    1
    46     6    42    1
    47     7    43    1
    48     7    44    1
    49     7    45    1
    50     9    46    1
    51    10    47    1
    52    14    48    1
    53    15    49    1
    54    24    50    1
    55    24    51    1
    56    24    52    1
    57    25    53    1
    58    25    54    1
    59    25    55    1
    60    26    56    1
    61    26    57    1
    62    27    58    1
    63    27    59    1
    64    29    60    1
    65    29    61    1
    66    29    62    1
    67    30    63    1
    68    30    64    1
    69    30    65    1
    70    34    66    1
    71    35    67    1
    72    68     1    1
    73    68    33    1
    74    68    18    1
    75    68    11    1
@<TRIPOS>MOLECULE
*****
 68 75 0 0 0
SMALL
GASTEIGER

@<TRIPOS>ATOM
      1 O           1.5248   -0.5223   -0.6404 O.2     1  UNL1        0.0000
      2 C          -0.9267   -0.2077   -0.7684 C.2     1  UNL1        0.0000
      3 N          -1.2606   -0.8309    2.2863 N.am    1  UNL1        0.0000
      4 C          -1.1727   -0.3512    2.3717 C.3     1  UNL1        0.0000
      5 C          -0.8408   -0.8604    2.5901 C.3     1  UNL1        0.0000
      6 C           0.8884   -2.0851    2.0137 C.3     1  UNL1        0.0000
      7 C          -1.7757   -2.1788    0.0003 C.3     1  UNL1        0.0000
      8 C           0.0499    2.1427    0.3191 C.ar    1  UNL1        0.0000
      9 C           1.2455    0.8812    0.7559 C.ar    1  UNL1        0.0000
     10 C          -0.0827   -0.2441   -3.7895 C.ar    1  UNL1        0.0000
     11 N           0.4897    2.3073   -0.3048 N.ar    1  UNL1        0.0000
     12 C           0.5373    2.0470   -2.0842 C.ar    1  UNL1        0.0000
     13 C          -1.5103    0.4207   -3.0954 C.ar    1  UNL1        0.0000
     14 C           0.1664   -2.3044    0.1787 C.ar    1  UNL1        0.0000
     15 C           0.0686   -2.3434    0.1768 C.ar    1  UNL1        0.0000
     16 C           0.1951   -1.3784   -1.9948 C.ar    1  UNL1        0.0000
     17 C           1.7257   -1.1642   -1.8225 C.ar    1  UNL1        0.0000
     18 N           0.5473   -0.5143    1.2998 N.ar    1  UNL1        0.0000
     19 C          -0.1420   -0.6217    0.9248 C.ar    1  UNL1        0.0000
     20 C          -0.2200   -0.5923    0.9514 C.ar    1  UNL1        0.0000
     21 N          -1.9925    0.7889   -1.0808 N.ar    1  UNL1        0.0000
     22 C          -0.2714    0.5714   -2.1098 C.ar    1  UNL1        0.0000
     23 C          -0.8593   -2.6798   -1.4923 C.3     1  UNL1        0.0000
     24 C          -1.3767    1.1601    0.5289 C.3     1  UNL1        0.0000
     25 C           1.6224    0.5392   -1.7351 C.3     1  UNL1        0.0000
     26 C          -1.4192    1.1075    0.5651 C.3     1  UNL1        0.0000
     27 C          -2.1271   -0.4469    0.4579 C.3     1  UNL1        0.0000
     28 C           2.2413   -0.8743    1.4241 C.3     1  UNL1        0.0000
     29 C          -0.1879    1.0169    1.8330 C.3     1  UNL1        0.0000
     30 C          -2.1171   -0.5235    0.4575 C.3     1  UNL1        0.0000
     31 C          -0.1933    0.5873   -1.9960 C.ar    1  UNL1        0.0000
     32 N          -1.2915    2.9292    0.8279 N.ar    1  UNL1        0.0000
     33 N           0.8431    2.1903    1.7146 N.ar    1  UNL1        0.0000
     34 C          -0.0532   -0.3443    0.6964 C.ar    1  UNL1        0.0000
     35 C           0.2499    0.7235   -0.4697 C.ar    1  UNL1        0.0000
     36 H          -1.9669    0.0750    1.8948 H       1  UNL1        0.0000
     37 H           0.4454   -3.4423    1.2083 H       1  UNL1        0.0000
     38 H          -0.7202    2.1759    2.6411 H       1  UNL1        0.0000
     39 H           0.3645   -2.7939   -2.5787 H       1  UNL1        0.0000
     40 H          -2.0699   -1.4065    2.0604 H       1  UNL1        0.0000
     41 H           1.6334   -2.2687    1.2898 H       1  UNL1        0.0000
     42 H          -2.7288   -0.6599   -1.0641 H       1  UNL1        0.0000
     43 H          -0.6341    1.6238   -3.1071 H       1  UNL1        0.0000
     44 H           2.0165    1.4882   -0.6952 H       1  UNL1        0.0000
     45 H           2.4408   -1.3508    0.0552 H       1  UNL1        0.0000
     46 H          -3.1028   -1.3152    1.4786 H       1  UNL1        0.0000
     47 H           0.2419    0.1346   -3.9132 H       1  UNL1        0.0000
     48 H           3.2234   -0.7481   -1.1903 H       1  UNL1        0.0000
     49 H          -0.6585    0.6897    3.2706 H       1  UNL1        0.0000
     50 H          -0.6723   -2.0719    1.5569 H       1  UNL1        0.0000
     51 H          -1.1952   -2.2956   -1.7876 H       1  UNL1        0.0000
     52 H          -0.8920    2.9938   -0.6107 H       1  UNL1        0.0000
     53 H          -0.0930   -2.7986   -1.2541 H       1  UNL1        0.0000
     54 H          -1.0719    1.8130   -1.0196 H       1  UNL1        0.0000
     55 H           0.5560   -2.4787   -1.2217 H       1  UNL1        0.0000
     56 H           2.6521    0.6424    0.8713 H       1  UNL1        0.0000
     57 H           1.1715   -1.7671   -3.0228 H       1  UNL1        0.0000
     58 H          -1.4927   -1.1590   -2.4299 H       1  UNL1        0.0000
     59 H           0.8191    0.1019    2.5025 H       1  UNL1        0.0000
     60 H          -2.5718    1.8527   -0.2036 H       1  UNL1        0.0000
     61 H           1.1371    1.0844   -3.0208 H       1  UNL1        0.0000
     62 H           1.1750    1.1008   -3.0180 H       1  UNL1        0.0000
     63 H           1.7669    2.9027   -0.6891 H       1  UNL1        0.0000
     64 H           3.1488   -0.1110   -0.0654 H       1  UNL1        0.0000
     65 H          -1.3393   -3.8991    0.9013 H       1  UNL1        0.0000
     66 H          -1.6283    1.2542    2.2598 H       1  UNL1        0.0000
     67 H           2.2281    2.3810    1.1258 H       1  UNL1        0.0000
     68 EU          1.2689    2.1366    0.3150 Eu      1  UNL1        0.0000
@<TRIPOS>BOND
     1     1     2    2
     2     2     3   am
     3     3     4    1
     4     3     5    1
     5     5     6    1
     6     6     7    1
     7     2     8    1
     8     8     9   ar
     9     9    10   ar
    10     8    11   ar
    11    11    12   ar
    12    12    13   ar
    13    10    13   ar
    14    13    14   ar
    15    14    15   ar
    16    15    16   ar
    17    16    17   ar
    18    12    17   ar
    19    17    18   ar
    20    18    19   ar
    21    19    20    1
    22    20    21   ar
    23    21    22   ar
    24    22    23    1
    25    23    24    1
    26    23    25    1
    27    23    26    1
    28    26    27    1
    29    27    28    1
    30    28    29    1
    31    28    30    1
    32    22    31   ar
    33    28    31    1
    34    31    32   ar
    35    32    33   ar
    36    20    33   ar
    37    19    34   ar
    38    34    35   ar
    39    16    35   ar
    40     4    36    1
    41     4    37    1
    42     4    38    1
    43     5    39    1
    44     5    40    1
    45     6    41    1
    46     6    42    1
    47     7    43    1
    48     7    44    1
    49     7    45    1
    50     9    46    1
    51    10    47    1
    52    14    48    1
    53    15    49    1
    54    24    50    1
    55    24    51    1
    56    24    52    1
    57    25    53    1
    58    25    54    1
    59    25    55    1
    60    26    56    1
    61    26    57    1
    62    27    58    1
    63    27    59    1
    64    29    60    1
    65    29    61    1
    66    29    62    1
    67    30    63    1
    68    30    64    1
    69    30    65    1
    70    34    66    1
    71    35    67    1
    72    68     1    1
    73    68    33    1
    74    68    18    1
    75    68    11    1
@<TRIPOS>MOLECULE
*****
 68 75 0 0 0
SMALL
GASTEIGER

@<TRIPOS>ATOM
      1 O           1.5248   -0.5223   -0.6404 O.2     1  UNL1        0.0000
      2 C          -0.9267   -0.2077   -0.7684 C.2     1  UNL1        0.0000
      3 N          -1.2606   -0.8309    2.2863 N.am    1  UNL1        0.0000
      4 C          -1.1727   -0.3512    2.3717 C.3     1  UNL1        0.0000
      5 C          -0.8408   -0.8604    2.5901 C.3     1  UNL1        0.0000
      6 C           0.8884   -2.0851    2.0137 C.3     1  UNL1        0.0000
      7 C          -1.7757   -2.1788    0.0003 C.3     1  UNL1        0.0000
      8 C           0.0499    2.1427    0.3191 C.ar    1  UNL1        0.0000
      9 C           1.2455    0.8812    0.7559 C.ar    1  UNL1        0.0000
     10 C          -0.0827   -0.2441   -3.7895 C.ar    1  UNL1        0.0000
     11 N           0.4897    2.3073   -0.3048 N.ar    1  UNL1        0.0000
     12 C           0.5373    2.0470   -2.0842 C.ar    1  UNL1        0.0000
     13 C          -1.5103    0.4207   -3.0954 C.ar    1  UNL1        0.0000
     14 C           0.1664   -2.3044    0.1787 C.ar    1  UNL1        0.0000
     15 C           0.0686   -2.3434    0.1768 C.ar    1  UNL1        0.0000
     16 C           0.1951   -1.3784   -1.9948 C.ar    1  UNL1        0.0000
     17 C           1.7257   -1.1642   -1.8225 C.ar    1  UNL1        0.0000
     18 N           0.5473   -0.5143    1.2998 N.ar    1  UNL1        0.0000
     19 C          -0.1420   -0.6217    0.9248 C.ar    1  UNL1        0.0000
     20 C          -0.2200   -0.5923    0.9514 C.ar    1  UNL1        0.0000
     21 N          -1.9925    0.7889   -1.0808 N.ar    1  UNL1        0.0000
     22 C          -0.2714    0.5714   -2.1098 C.ar    1  UNL1        0.0000
     23 C          -0.8593   -2.6798   -1.4923 C.3     1  UNL1        0.0000
     24 C          -1.3767    1.1601    0.5289 C.3     1  UNL1        0.0000
     25 C           1.6224    0.5392   -1.7351 C.3     1  UNL1        0.0000
     26 C          -1.4192    1.1075    0.5651 C.3     1  UNL1        0.0000
     27 C          -2.1271   -0.4469    0.4579 C.3     1  UNL1        0.0000
     28 C           2.2413   -0.8743    1.4241 C.3     1  UNL1        0.0000
     29 C          -0.1879    1.0169    1.8330 C.3     1  UNL1        0.0000
     30 C          -2.1171   -0.5235    0.4575 C.3     1  UNL1        0.0000
     31 C          -0.1933    0.5873   -1.9960 C.ar    1  UNL1        0.0000
     32 N          -1.2915    2.9292    0.8279 N.ar    1  UNL1        0.0000
     33 N           0.8431    2.1903    1.7146 N.ar    1  UNL1        0.0000
     34 C          -0.0532   -0.3443    0.6964 C.ar    1  UNL1        0.0000
     35 C           0.2499    0.7235   -0.4697 C.ar    1  UNL1        0.0000
     36 H          -1.9669    0.0750    1.8948 H       1  UNL1        0.0000
     37 H           0.4454   -3.4423    1.2083 H       1  UNL1        0.0000
     38 H          -0.7202    2.1759    2.6411 H       1  UNL1        0.0000
     39 H           0.3645   -2.7939   -2.5787 H       1  UNL1        0.0000
     40 H          -2.0699   -1.4065    2.0604 H       1  UNL1        0.0000
     41 H           1.6334   -2.2687    1.2898 H       1  UNL1        0.0000
     42 H          -2.7288   -0.6599   -1.0641 H       1  UNL1        0.0000
     43 H          -0.6341    1.6238   -3.1071 H       1  UNL1        0.0000
     44 H           2.0165    1.4882   -0.6952 H       1  UNL1        0.0000
     45 H           2.4408   -1.3508    0.0552 H       1  UNL1        0.0000
     46 H          -3.1028   -1.3152    1.4786 H       1  UNL1        0.0000
     47 H           0.2419    0.1346   -3.9132 H       1  UNL1        0.0000
     48 H           3.2234   -0.7481   -1.1903 H       1  UNL1        0.0000
     49 H          -0.6585    0.6897    3.2706 H       1  UNL1        0.0000
     50 H          -0.6723   -2.0719    1.5569 H       1  UNL1        0.0000
     51 H          -1.1952   -2.2956   -1.7876 H       1  UNL1        0.0000
     52 H          -0.8920    2.9938   -0.6107 H       1  UNL1        0.0000
     53 H          -0.0930   -2.7986   -1.2541 H       1  UNL1        0.0000
     54 H          -1.0719    1.8130   -1.0196 H       1  UNL1        0.0000
     55 H           0.5560   -2.4787   -1.2217 H       1  UNL1        0.0000
     56 H           2.6521    0.6424    0.8713 H       1  UNL1        0.0000
     57 H           1.1715   -1.7671   -3.0228 H       1  UNL1        0.0000
     58 H          -1.4927   -1.1590   -2.4299 H       1  UNL1        0.0000
     59 H           0.8191    0.1019    2.5025 H       1  UNL1        0.0000
     60 H          -2.5718    1.8527   -0.2036 H       1  UNL1        0.0000
     61 H           1.1371    1.0844   -3.0208 H       1  UNL1        0.0000
     62 H           1.1750    1.1008   -3.0180 H       1  UNL1        0.0000
     63 H           1.7669    2.9027   -0.6891 H       1  UNL1        0.0000
     64 H           3.1488   -0.1110   -0.0654 H       1  UNL1        0.0000
     65 H          -1.3393   -3.8991    0.9013 H       1  UNL1        0.0000
     66 H          -1.6283    1.2542    2.2598 H       1  UNL1        0.0000
     67 H           2.2281    2.3810    1.1258 H       1  UNL1        0.0000
     68 EU          1.2689    2.1366    0.3150 Eu      1  UNL1        0.0000
@<TRIPOS>BOND
     1     1     2    2
     2     2     3   am
     3     3     4    1
     4     3     5    1
     5     5     6    1
     6     6     7    1
     7     2     8    1
     8     8     9   ar
     9     9    10   ar
    10     8    11   ar
    11    11    12   ar
    12    12    13   ar
    13    10    13   ar
    14    13    14   ar
    15    14    15   ar
    16    15    16   ar
    17    16    17   ar
    18    12    17   ar
    19    17    18   ar
    20    18    19   ar
    21    19    20    1
    22    20    21   ar
    23    21    22   ar
    24    22    23    1
    25    23    24    1
    26    23    25    1
    27    23    26    1
    28    26    27    1
    29    27    28    1
    30    28    29    1
    31    28    30    1
    32    22    31   ar
    33    28    31    1
    34    31    32   ar
    35    32    33   ar
    36    20    33   ar
    37    19    34   ar
    38    34    35   ar
    39    16    35   ar
    40     4    36    1
    41     4    37    1
    42     4    38    1
    43     5    39    1
    44     5    40    1
    45     6    41    1
    46     6    42    1
    47     7    43    1
    48     7    44    1
    49     7    45    1
    50     9    46    1
    51    10    47    1
    52    14    48    1
    53    15    49    1
    54    24    50    1
    55    24    51    1
    56    24    52    1
    57    25    53    1
    58    25    54    1
    59    25    55    1
    60    26    56    1
    61    26    57    1
    62    27    58    1
    63    27    59    1
    64    29    60    1
    65    29    61    1
    66    29    62    1
    67    30    63    1
    68    30    64    1
    69    30    65    1
    70    34    66    1
    71    35    67    1
    72    68     1    1
    73    68    33    1
    74    68    18    1
    75    68    11    1
@<TRIPOS>MOLECULE
*****
 68 75 0 0 0
SMALL
GASTEIGER

@<TRIPOS>ATOM
      1 O           1.5248   -0.5223   -0.6404 O.2     1  UNL1        0.0000
      2 C          -0.9267   -0.2077   -0.7684 C.2     1  UNL1        0.0000
      3 N          -1.2606   -0.8309    2.2863 N.am    1  UNL1        0.0000
      4 C          -1.1727   -0.3512    2.3717 C.3     1  UNL1        0.0000
      5 C          -0.8408   -0.8604    2.5901 C.3     1  UNL1        0.0000
      6 C           0.8884   -2.0851    2.0137 C.3     1  UNL1        0.0000
      7 C          -1.7757   -2.1788    0.0003 C.3     1  UNL1        0.0000
      8 C           0.0499    2.1427    0.3191 C.ar    1  UNL1        0.0000
      9 C           1.2455    0.8812    0.7559 C.ar    1  UNL1        0.0000
     10 C          -0.0827   -0.2441   -3.7895 C.ar    1  UNL1        0.0000
     11 N           0.4897    2.3073   -0.3048 N.ar    1  UNL1        0.0000
     12 C           0.5373    2.0470   -2.0842 C.ar    1  UNL1        0.0000
     13 C          -1.5103    0.4207   -3.0954 C.ar    1  UNL1        0.0000
     14 C           0.1664   -2.3044    0.1787 C.ar    1  UNL1        0.0000
     15 C           0.0686   -2.3434    0.1768 C.ar    1  UNL1        0.0000
     16 C           0.1951   -1.3784   -1.9948 C.ar    1  UNL1        0.0000
     17 C           1.7257   -1.1642   -1.8225 C.ar    1  UNL1        0.0000
     18 N           0.5473   -0.5143    1.2998 N.ar    1  UNL1        0.0000
     19 C          -0.1420   -0.6217    0.9248 C.ar    1  UNL1        0.0000
     20 C          -0.2200   -0.5923    0.9514 C.ar    1  UNL1        0.0000
     21 N          -1.9925    0.7889   -1.0808 N.ar    1  UNL1        0.0000
     22 C          -0.2714    0.5714   -2.1098 C.ar    1  UNL1        0.0000
     23 C          -0.8593   -2.6798   -1.4923 C.3     1  UNL1        0.0000
     24 C          -1.3767    1.1601    0.5289 C.3     1  UNL1        0.0000
     25 C           1.6224    0.5392   -1.7351 C.3     1  UNL1        0.0000
     26 C          -1.4192    1.1075    0.5651 C.3     1  UNL1        0.0000
     27 C          -2.1271   -0.4469    0.4579 C.3     1  UNL1        0.0000
     28 C           2.2413   -0.8743    1.4241 C.3     1  UNL1        0.0000
     29 C          -0.1879    1.0169    1.8330 C.3     1  UNL1        0.0000
     30 C          -2.1171   -0.5235    0.4575 C.3     1  UNL1        0.0000
     31 C          -0.1933    0.5873   -1.9960 C.ar    1  UNL1        0.0000
     32 N          -1.2915    2.9292    0.8279 N.ar    1  UNL1        0.0000
     33 N           0.8431    2.1903    1.7146 N.ar    1  UNL1        0.0000
     34 C          -0.0532   -0.3443    0.6964 C.ar    1  UNL1        0.0000
     35 C           0.2499    0.7235   -0.4697 C.ar    1  UNL1        0.0000
     36 H          -1.9669    0.0750    1.8948 H       1  UNL1        0.0000
     37 H           0.4454   -3.4423    1.2083 H       1  UNL1        0.0000
     38 H          -0.7202    2.1759    2.6411 H       1  UNL1        0.0000
     39 H           0.3645   -2.7939   -2.5787 H       1  UNL1        0.0000
     40 H          -2.0699   -1.4065    2.0604 H       1  UNL1        0.0000
     41 H           1.6334   -2.2687    1.2898 H       1  UNL1        0.0000
     42 H          -2.7288   -0.6599   -1.0641 H       1  UNL1        0.0000
     43 H          -0.6341    1.6238   -3.1071 H       1  UNL1        0.0000
     44 H           2.0165    1.4882   -0.6952 H       1  UNL1        0.0000
     45 H           2.4408   -1.3508    0.0552 H       1  UNL1        0.0000
     46 H          -3.1028   -1.3152    1.4786 H       1  UNL1        0.0000
     47 H           0.2419    0.1346   -3.9132 H       1  UNL1        0.0000
     48 H           3.2234   -0.7481   -1.1903 H       1  UNL1        0.0000
     49 H          -0.6585    0.6897    3.2706 H       1  UNL1        0.0000
     50 H          -0.6723   -2.0719    1.5569 H       1  UNL1        0.0000
     51 H          -1.1952   -2.2956   -1.7876 H       1  UNL1        0.0000
     52 H          -0.8920    2.9938   -0.6107 H       1  UNL1        0.0000
     53 H          -0.0930   -2.7986   -1.2541 H       1  UNL1        0.0000
     54 H          -1.0719    1.8130   -1.0196 H       1  UNL1        0.0000
     55 H           0.5560   -2.4787   -1.2217 H       1  UNL1        0.0000
     56 H           2.6521    0.6424    0.8713 H       1  UNL1        0.0000
     57 H           1.1715   -1.7671   -3.0228 H       1  UNL1        0.0000
     58 H          -1.4927   -1.1590   -2.4299 H       1  UNL1        0.0000
     59 H           0.8191    0.1019    2.5025 H       1  UNL1        0.0000
     60 H          -2.5718    1.8527   -0.2036 H       1  UNL1        0.0000
     61 H           1.1371    1.0844   -3.0208 H       1  UNL1        0.0000
     62 H           1.1750    1.1008   -3.0180 H       1  UNL1        0.0000
     63 H           1.7669    2.9027   -0.6891 H       1  UNL1        0.0000
     64 H           3.1488   -0.1110   -0.0654 H       1  UNL1        0.0000
     65 H          -1.3393   -3.8991    0.9013 H       1  UNL1        0.0000
     66 H          -1.6283    1.2542    2.2598 H       1  UNL1        0.0000
     67 H           2.2281    2.3810    1.1258 H       1  UNL1        0.0000
     68 EU          1.2689    2.1366    0.3150 Eu      1  UNL1        0.0000
@<TRIPOS>BOND
     1     1     2    2
     2     2     3   am
     3     3     4    1
     4     3     5    1
     5     5     6    1
     6     6     7    1
     7     2     8    1
     8     8     9   ar
     9     9    10   ar
    10     8    11   ar
    11    11    12   ar
    12    12    13   ar
    13    10    13   ar
    14    13    14   ar
    15    14    15   ar
    16    15    16   ar
    17    16    17   ar
    18    12    17   ar
    19    17    18   ar
    20    18    19   ar
    21    19    20    1
    22    20    21   ar
    23    21    22   ar
    24    22    23    1
    25    23    24    1
    26    23    25    1
    27    23    26    1
    28    26    27    1
    29    27    28    1
    30    28    29    1
    31    28    30    1
    32    22    31   ar
    33    28    31    1
    34    31    32   ar
    35    32    33   ar
    36    20    33   ar
    37    19    34   ar
    38    34    35   ar
    39    16    35   ar
    40     4    36    1
    41     4    37    1
    42     4    38    1
    43     5    39    1
    44     5    40    1
    45     6    41    1
    46     6    42    1
    47     7    43    1
    48     7    44    1
    49     7    45    1
    50     9    46    1
    51    10    47    1
    52    14    48    1
    53    15    49    1
    54    24    50    1
    55    24    51    1
    56    24    52    1
    57    25    53    1
    58    25    54    1
    59    25    55    1
    60    26    56    1
    61    26    57    1
    62    27    58    1
    63    27    59    1
    64    29    60    1
    65    29    61    1
    66    29    62    1
    67    30    63    1
    68    30    64    1
    69    30    65    1
    70    34    66    1
    71    35    67    1
    72    68     1    1
    73    68    33    1
    74    68    18    1
    75    68    11    1
@<TRIPOS>MOLECULE
*****
 68 75 0 0 0
SMALL
GASTEIGER

@<TRIPOS>ATOM
      1 O           1.5248   -0.5223   -0.6404 O.2     1  UNL1        0.0000
      2 C          -0.9267   -0.2077   -0.7684 C.2     1  UNL1        0.0000
      3 N          -1.2606   -0.8309    2.2863 N.am    1  UNL1        0.0000
      4 C          -1.1727   -0.3512    2.3717 C.3     1  UNL1        0.0000
      5 C          -0.8408   -0.8604    2.5901 C.3     1  UNL1        0.0000
      6 C           0.8884   -2.0851    2.0137 C.3     1  UNL1        0.0000
      7 C          -1.7757   -2.1788    0.0003 C.3     1  UNL1        0.0000
      8 C           0.0499    2.1427    0.3191 C.ar    1  UNL1        0.0000
      9 C           1.2455    0.8812    0.7559 C.ar    1  UNL1        0.0000
     10 C          -0.0827   -0.2441   -3.7895 C.ar    1  UNL1        0.0000
     11 N           0.4897    2.3073   -0.3048 N.ar    1  UNL1        0.0000
     12 C           0.5373    2.0470   -2.0842 C.ar    1  UNL1        0.0000
     13 C          -1.5103    0.4207   -3.0954 C.ar    1  UNL1        0.0000
     14 C           0.1664   -2.3044    0.1787 C.ar    1  UNL1        0.0000
     15 C           0.0686   -2.3434    0.1768 C.ar    1  UNL1        0.0000
     16 C           0.1951   -1.3784   -1.9948 C.ar    1  UNL1        0.0000
     17 C           1.7257   -1.1642   -1.8225 C.ar    1  UNL1        0.0000
     18 N           0.5473   -0.5143    1.2998 N.ar    1  UNL1        0.0000
     19 C          -0.1420   -0.6217    0.9248 C.ar    1  UNL1        0.0000
     20 C          -0.2200   -0.5923    0.9514 C.ar    1  UNL1        0.0000
     21 N          -1.9925    0.7889   -1.0808 N.ar    1  UNL1        0.0000
     22 C          -0.2714    0.5714   -2.1098 C.ar    1  UNL1        0.0000
     23 C          -0.8593   -2.6798   -1.4923 C.3     1  UNL1        0.0000
     24 C          -1.3767    1.1601    0.5289 C.3     1  UNL1        0.0000
     25 C           1.6224    0.5392   -1.7351 C.3     1  UNL1        0.0000
     26 C          -1.4192    1.1075    0.5651 C.3     1  UNL1        0.0000
     27 C          -2.1271   -0.4469    0.4579 C.3     1  UNL1        0.0000
     28 C           2.2413   -0.8743    1.4241 C.3     1  UNL1        0.0000
     29 C          -0.1879    1.0169    1.8330 C.3     1  UNL1        0.0000
     30 C          -2.1171   -0.5235    0.4575 C.3     1  UNL1        0.0000
     31 C          -0.1933    0.5873   -1.9960 C.ar    1  UNL1        0.0000
     32 N          -1.2915    2.9292    0.8279 N.ar    1  UNL1        0.0000
     33 N           0.8431    2.1903    1.7146 N.ar    1  UNL1        0.0000
     34 C          -0.0532   -0.3443    0.6964 C.ar    1  UNL1        0.0000
     35 C           0.2499    0.7235   -0.4697 C.ar    1  UNL1        0.0000
     36 H          -1.9669    0.0750    1.8948 H       1  UNL1        0.0000
     37 H           0.4454   -3.4423    1.2083 H       1  UNL1        0.0000
     38 H          -0.7202    2.1759    2.6411 H       1  UNL1        0.0000
     39 H           0.3645   -2.7939   -2.5787 H       1  UNL1        0.0000
     40 H          -2.0699   -1.4065    2.0604 H       1  UNL1        0.0000
     41 H           1.6334   -2.2687    1.2898 H       1  UNL1        0.0000
     42 H          -2.7288   -0.6599   -1.0641 H       1  UNL1        0.0000
     43 H          -0.6341    1.6238   -3.1071 H       1  UNL1        0.0000
     44 H           2.0165    1.4882   -0.6952 H       1  UNL1        0.0000
     45 H           2.4408   -1.3508    0.0552 H       1  UNL1        0.0000
     46 H          -3.1028   -1.3152    1.4786 H       1  UNL1        0.0000
     47 H           0.2419    0.1346   -3.9132 H       1  UNL1        0.0000
     48 H           3.2234   -0.7481   -1.1903 H       1  UNL1        0.0000
     49 H          -0.6585    0.6897    3.2706 H       1  UNL1        0.0000
     50 H          -0.6723   -2.0719    1.5569 H       1  UNL1        0.0000
     51 H          -1.1952   -2.2956   -1.7876 H       1  UNL1        0.0000
     52 H          -0.8920    2.9938   -0.6107 H       1  UNL1        0.0000
     53 H          -0.0930   -2.7986   -1.2541 H       1  UNL1        0.0000
     54 H          -1.0719    1.8130   -1.0196 H       1  UNL1        0.0000
     55 H           0.5560   -2.4787   -1.2217 H       1  UNL1        0.0000
     56 H           2.6521    0.6424    0.8713 H       1  UNL1        0.0000
     57 H           1.1715   -1.7671   -3.0228 H       1  UNL1        0.0000
     58 H          -1.4927   -1.1590   -2.4299 H       1  UNL1        0.0000
     59 H           0.8191    0.1019    2.5025 H       1  UNL1        0.0000
     60 H          -2.5718    1.8527   -0.2036 H       1  UNL1        0.0000
     61 H           1.1371    1.0844   -3.0208 H       1  UNL1        0.0000
     62 H           1.1750    1.1008   -3.0180 H       1  UNL1        0.0000
     63 H           1.7669    2.9027   -0.6891 H       1  UNL1        0.0000
     64 H           3.1488   -0.1110   -0.0654 H       1  UNL1        0.0000
     65 H          -1.3393   -3.8991    0.9013 H       1  UNL1        0.0000
     66 H          -1.6283    1.2542    2.2598 H       1  UNL1        0.0000
     67 H           2.2281    2.3810    1.1258 H       1  UNL1        0.0000
     68 EU          1.2689    2.1366    0.3150 Eu      1  UNL1        0.0000
@<TRIPOS>BOND
     1     1     2    2
     2     2     3   am
     3     3     4    1
     4     3     5    1
     5     5     6    1
     6     6     7    1
     7     2     8    1
     8     8     9   ar
     9     9    10   ar
    10     8    11   ar
    11    11    12   ar
    12    12    13   ar
    13    10    13   ar
    14    13    14   ar
    15    14    15   ar
    16    15    16   ar
    17    16    17   ar
    18    12    17   ar
    19    17    18   ar
    20    18    19   ar
    21    19    20    1
    22    20    21   ar
    23    21    22   ar
    24    22    23    1
    25    23    24    1
    26    23    25    1
    27    23    26    1
    28    26    27    1
    29    27    28    1
    30    28    29    1
    31    28    30    1
    32    22    31   ar
    33    28    31    1
    34    31    32   ar
    35    32    33   ar
    36    20    33   ar
    37    19    34   ar
    38    34    35   ar
    39    16    35   ar
    40     4    36    1
    41     4    37    1
    42     4    38    1
    43     5    39    1
    44     5    40    1
    45     6    41    1
    46     6    42    1
    47     7    43    1
    48     7    44    1
    49     7    45    1
    50     9    46    1
    51    10    47    1
    52    14    48    1
    53    15    49    1
    54    24    50    1
    55    24    51    1
    56    24    52    1
    57    25    53    1
    58    25    54    1
    59    25    55    1
    60    26    56    1
    61    26    57    1
    62    27    58    1
    63    27    59    1
    64    29    60    1
    65    29    61    1
    66    29    62    1
    67    30    63    1
    68    30    64    1
    69    30    65    1
    70    34    66    1
    71    35    67    1
    72    68     1    1
    73    68    33    1
    74    68    18    1
    75    68    11    1
@<TRIPOS>MOLECULE
*****
 68 75 0 0 0
SMALL
GASTEIGER

@<TRIPOS>ATOM
      1 O           1.5248   -0.5223   -0.6404 O.2     1  UNL1        0.0000
      2 C          -0.9267   -0.2077   -0.7684 C.2     1  UNL1        0.0000
      3 N          -1.2606   -0.8309    2.2863 N.am    1  UNL1        0.0000
      4 C          -1.1727   -0.3512    2.3717 C.3     1  UNL1        0.0000
      5 C          -0.8408   -0.8604    2.5901 C.3     1  UNL1        0.0000
      6 C           0.8884   -2.0851    2.0137 C.3     1  UNL1        0.0000
      7 C          -1.7757   -2.1788    0.0003 C.3     1  UNL1        0.0000
      8 C           0.0499    2.1427    0.3191 C.ar    1  UNL1        0.0000
      9 C           1.2455    0.8812    0.7559 C.ar    1  UNL1        0.0000
     10 C          -0.0827   -0.2441   -3.7895 C.ar    1  UNL1        0.0000
     11 N           0.4897    2.3073   -0.3048 N.ar    1  UNL1        0.0000
     12 C           0.5373    2.0470   -2.0842 C.ar    1  UNL1        0.0000
     13 C          -1.5103    0.4207   -3.0954 C.ar    1  UNL1        0.0000
     14 C           0.1664   -2.3044    0.1787 C.ar    1  UNL1        0.0000
     15 C           0.0686   -2.3434    0.1768 C.ar    1  UNL1        0.0000
     16 C           0.1951   -1.3784   -1.9948 C.ar    1  UNL1        0.0000
     17 C           1.7257   -1.1642   -1.8225 C.ar    1  UNL1        0.0000
     18 N           0.5473   -0.5143    1.2998 N.ar    1  UNL1        0.0000
     19 C          -0.1420   -0.6217    0.9248 C.ar    1  UNL1        0.0000
     20 C          -0.2200   -0.5923    0.9514 C.ar    1  UNL1        0.0000
     21 N          -1.9925    0.7889   -1.0808 N.ar    1  UNL1        0.0000
     22 C          -0.2714    0.5714   -2.1098 C.ar    1  UNL1        0.0000
     23 C          -0.8593   -2.6798   -1.4923 C.3     1  UNL1        0.0000
     24 C          -1.3767    1.1601    0.5289 C.3     1  UNL1        0.0000
     25 C           1.6224    0.5392   -1.7351 C.3     1  UNL1        0.0000
     26 C          -1.4192    1.1075    0.5651 C.3     1  UNL1        0.0000
     27 C          -2.1271   -0.4469    0.4579 C.3     1  UNL1        0.0000
     28 C           2.2413   -0.8743    1.4241 C.3     1  UNL1        0.0000
     29 C          -0.1879    1.0169    1.8330 C.3     1  UNL1        0.0000
     30 C          -2.1171   -0.5235    0.4575 C.3     1  UNL1        0.0000
     31 C          -0.1933    0.5873   -1.9960 C.ar    1  UNL1        0.0000
     32 N          -1.2915    2.9292    0.8279 N.ar    1  UNL1        0.0000
     33 N           0.8431    2.1903    1.7146 N.ar    1  UNL1        0.0000
     34 C          -0.0532   -0.3443    0.6964 C.ar    1  UNL1        0.0000
     35 C           0.2499    0.7235   -0.4697 C.ar    1  UNL1        0.0000
     36 H          -1.9669    0.0750    1.8948 H       1  UNL1        0.0000
     37 H           0.4454   -3.4423    1.2083 H       1  UNL1        0.0000
     38 H          -0.7202    2.1759    2.6411 H       1  UNL1        0.0000
     39 H           0.3645   -2.7939   -2.5787 H       1  UNL1        0.0000
     40 H          -2.0699   -1.4065    2.0604 H       1  UNL1        0.0000
     41 H           1.6334   -2.2687    1.2898 H       1  UNL1        0.0000
     42 H          -2.7288   -0.6599   -1.0641 H       1  UNL1        0.0000
     43 H          -0.6341    1.6238   -3.1071 H       1  UNL1        0.0000
     44 H           2.0165    1.4882   -0.6952 H       1  UNL1        0.0000
     45 H           2.4408   -1.3508    0.0552 H       1  UNL1        0.0000
     46 H          -3.1028   -1.3152    1.4786 H       1  UNL1        0.0000
     47 H           0.2419    0.1346   -3.9132 H       1  UNL1        0.0000
     48 H           3.2234   -0.7481   -1.1903 H       1  UNL1        0.0000
     49 H          -0.6585    0.6897    3.2706 H       1  UNL1        0.0000
     50 H          -0.6723   -2.0719    1.5569 H       1  UNL1        0.0000
     51 H          -1.1952   -2.2956   -1.7876 H       1  UNL1        0.0000
     52 H          -0.8920    2.9938   -0.6107 H       1  UNL1        0.0000
     53 H          -0.0930   -2.7986   -1.2541 H       1  UNL1        0.0000
     54 H          -1.0719    1.8130   -1.0196 H       1  UNL1        0.0000
     55 H           0.5560   -2.4787   -1.2217 H       1  UNL1        0.0000
     56 H           2.6521    0.6424    0.8713 H       1  UNL1        0.0000
     57 H           1.1715   -1.7671   -3.0228 H       1  UNL1        0.0000
     58 H          -1.4927   -1.1590   -2.4299 H       1  UNL1        0.0000
     59 H           0.8191    0.1019    2.5025 H       1  UNL1        0.0000
     60 H          -2.5718    1.8527   -0.2036 H       1  UNL1        0.0000
     61 H           1.1371    1.0844   -3.0208 H       1  UNL1        0.0000
     62 H           1.1750    1.1008   -3.0180 H       1  UNL1        0.0000
     63 H           1.7669    2.9027   -0.6891 H       1  UNL1        0.0000
     64 H           3.1488   -0.1110   -0.0654 H       1  UNL1        0.0000
     65 H          -1.3393   -3.8991    0.9013 H       1  UNL1        0.0000
     66 H          -1.6283    1.2542    2.2598 H       1  UNL1        0.0000
     67 H           2.2281    2.3810    1.1258 H       1  UNL1        0.0000
     68 EU          1.2689    2.1366    0.3150 Eu      1  UNL1        0.0000
@<TRIPOS>BOND
     1     1     2    2
     2     2     3   am
     3     3     4    1
     4     3     5    1
     5     5     6    1
     6     6     7    1
     7     2     8    1
     8     8     9   ar
     9     9    10   ar
    10     8    11   ar
    11    11    12   ar
    12    12    13   ar
    13    10    13   ar
    14    13    14   ar
    15    14    15   ar
    16    15    16   ar
    17    16    17   ar
    18    12    17   ar
    19    17    18   ar
    20    18    19   ar
    21    19    20    1
    22    20    21   ar
    23    21    22   ar
    24    22    23    1
    25    23    24    1
    26    23    25    1
    27    23    26    1
    28    26    27    1
    29    27    28    1
    30    28    29    1
    31    28    30    1
    32    22    31   ar
    33    28    31    1
    34    31    32   ar
    35    32    33   ar
    36    20    33   ar
    37    19    34   ar
    38    34    35   ar
    39    16    35   ar
    40     4    36    1
    41     4    37    1
    42     4    38    1
    43     5    39    1
    44     5    40    1
    45     6    41    1
    46     6    42    1
    47     7    43    1
    48     7    44    1
    49     7    45    1
    50     9    46    1
    51    10    47    1
    52    14    48    1
    53    15    49    1
    54    24    50    1
    55    24    51    1
    56    24    52    1
    57    25    53    1
    58    25    54    1
    59    25    55    1
    60    26    56    1
    61    26    57    1
    62    27    58    1
    63    27    59    1
    64    29    60    1
    65    29    61    1
    66    29    62    1
    67    30    63    1
    68    30    64    1
    69    30    65    1
    70    34    66    1
    71    35    67    1
    72    68     1    1
    73    68    33    1
    74    68    18    1
    75    68    11    1
@<TRIPOS>MOLECULE
*****
 68 75 0 0 0
SMALL
GASTEIGER

@<TRIPOS>ATOM
      1 O           1.5248   -0.5223   -0.6404 O.2     1  UNL1        0.0000
      2 C          -0.9267   -0.2077   -0.7684 C.2     1  UNL1        0.0000
      3 N          -1.2606   -0.8309    2.2863 N.am    1  UNL1        0.0000
      4 C          -1.1727   -0.3512    2.3717 C.3     1  UNL1        0.0000
      5 C          -0.8408   -0.8604    2.5901 C.3     1  UNL1        0.0000
      6 C           0.8884   -2.0851    2.0137 C.3     1  UNL1        0.0000
      7 C          -1.7757   -2.1788    0.0003 C.3     1  UNL1        0.0000
      8 C           0.0499    2.1427    0.3191 C.ar    1  UNL1        0.0000
      9 C           1.2455    0.8812    0.7559 C.ar    1  UNL1        0.0000
     10 C          -0.0827   -0.2441   -3.7895 C.ar    1  UNL1        0.0000
     11 N           0.4897    2.3073   -0.3048 N.ar    1  UNL1        0.0000
     12 C           0.5373    2.0470   -2.0842 C.ar    1  UNL1        0.0000
     13 C          -1.5103    0.4207   -3.0954 C.ar    1  UNL1        0.0000
     14 C           0.1664   -2.3044    0.1787 C.ar    1  UNL1        0.0000
     15 C           0.0686   -2.3434    0.1768 C.ar    1  UNL1        0.0000
     16 C           0.1951   -1.3784   -1.9948 C.ar    1  UNL1        0.0000
     17 C           1.7257   -1.1642   -1.8225 C.ar    1  UNL1        0.0000
     18 N           0.5473   -0.5143    1.2998 N.ar    1  UNL1        0.0000
     19 C          -0.1420   -0.6217    0.9248 C.ar    1  UNL1        0.0000
     20 C          -0.2200   -0.5923    0.9514 C.ar    1  UNL1        0.0000
     21 N          -1.9925    0.7889   -1.0808 N.ar    1  UNL1        0.0000
     22 C          -0.2714    0.5714   -2.1098 C.ar    1  UNL1        0.0000
     23 C          -0.8593   -2.6798   -1.4923 C.3     1  UNL1        0.0000
     24 C          -1.3767    1.1601    0.5289 C.3     1  UNL1        0.0000
     25 C           1.6224    0.5392   -1.7351 C.3     1  UNL1        0.0000
     26 C          -1.4192    1.1075    0.5651 C.3     1  UNL1        0.0000
     27 C          -2.1271   -0.4469    0.4579 C.3     1  UNL1        0.0000
     28 C           2.2413   -0.8743    1.4241 C.3     1  UNL1        0.0000
     29 C          -0.1879    1.0169    1.8330 C.3     1  UNL1        0.0000
     30 C          -2.1171   -0.5235    0.4575 C.3     1  UNL1        0.0000
     31 C          -0.1933    0.5873   -1.9960 C.ar    1  UNL1        0.0000
     32 N          -1.2915    2.9292    0.8279 N.ar    1  UNL1        0.0000
     33 N           0.8431    2.1903    1.7146 N.ar    1  UNL1        0.0000
     34 C          -0.0532   -0.3443    0.6964 C.ar    1  UNL1        0.0000
     35 C           0.2499    0.7235   -0.4697 C.ar    1  UNL1        0.0000
     36 H          -1.9669    0.0750    1.8948 H       1  UNL1        0.0000
     37 H           0.4454   -3.4423    1.2083 H       1  UNL1        0.0000
     38 H          -0.7202    2.1759    2.6411 H       1  UNL1        0.0000
     39 H           0.3645   -2.7939   -2.5787 H       1  UNL1        0.0000
     40 H          -2.0699   -1.4065    2.0604 H       1  UNL1        0.0000
     41 H           1.6334   -2.2687    1.2898 H       1  UNL1        0.0000
     42 H          -2.7288   -0.6599   -1.0641 H       1  UNL1        0.0000
     43 H          -0.6341    1.6238   -3.1071 H       1  UNL1        0.0000
     44 H           2.0165    1.4882   -0.6952 H       1  UNL1        0.0000
     45 H           2.4408   -1.3508    0.0552 H       1  UNL1        0.0000
     46 H          -3.1028   -1.3152    1.4786 H       1  UNL1        0.0000
     47 H           0.2419    0.1346   -3.9132 H       1  UNL1        0.0000
     48 H           3.2234   -0.7481   -1.1903 H       1  UNL1        0.0000
     49 H          -0.6585    0.6897    3.2706 H       1  UNL1        0.0000
     50 H          -0.6723   -2.0719    1.5569 H       1  UNL1        0.0000
     51 H          -1.1952   -2.2956   -1.7876 H       1  UNL1        0.0000
     52 H          -0.8920    2.9938   -0.6107 H       1  UNL1        0.0000
     53 H          -0.0930   -2.7986   -1.2541 H       1  UNL1        0.0000
     54 H          -1.0719    1.8130   -1.0196 H       1  UNL1        0.0000
     55 H           0.5560   -2.4787   -1.2217 H       1  UNL1        0.0000
     56 H           2.6521    0.6424    0.8713 H       1  UNL1        0.0000
     57 H           1.1715   -1.7671   -3.0228 H       1  UNL1        0.0000
     58 H          -1.4927   -1.1590   -2.4299 H       1  UNL1        0.0000
     59 H           0.8191    0.1019    2.5025 H       1  UNL1        0.0000
     60 H          -2.5718    1.8527   -0.2036 H       1  UNL1        0.0000
     61 H           1.1371    1.0844   -3.0208 H       1  UNL1        0.0000
     62 H           1.1750    1.1008   -3.0180 H       1  UNL1        0.0000
     63 H           1.7669    2.9027   -0.6891 H       1  UNL1        0.0000
     64 H           3.1488   -0.1110   -0.0654 H       1  UNL1        0.0000
     65 H          -1.3393   -3.8991    0.9013 H       1  UNL1        0.0000
     66 H          -1.6283    1.2542    2.2598 H       1  UNL1        0.0000
     67 H           2.2281    2.3810    1.1258 H       1  UNL1        0.0000
     68 EU          1.2689    2.1366    0.3150 Eu      1  UNL1        0.0000
@<TRIPOS>BOND
     1     1     2    2
     2     2     3   am
     3     3     4    1
     4     3     5    1
     5     5     6    1
     6     6     7    1
     7     2     8    1
     8     8     9   ar
     9     9    10   ar
    10     8    11   ar
    11    11    12   ar
    12    12    13   ar
    13    10    13   ar
    14    13    14   ar
    15    14    15   ar
    16    15    16   ar
    17    16    17   ar
    18    12    17   ar
    19    17    18   ar
    20    18    19   ar
    21    19    20    1
    22    20    21   ar
    23    21    22   ar
    24    22    23    1
    25    23    24    1
    26    23    25    1
    27    23    26    1
    28    26    27    1
    29    27    28    1
    30    28    29    1
    31    28    30    1
    32    22    31   ar
    33    28    31    1
    34    31    32   ar
    35    32    33   ar
    36    20    33   ar
    37    19    34   ar
    38    34    35   ar
    39    16    35   ar
    40     4    36    1
    41     4    37    1
    42     4    38    1
    43     5    39    1
    44     5    40    1
    45     6    41    1
    46     6    42    1
    47     7    43    1
    48     7    44    1
    49     7    45    1
    50     9    46    1
    51    10    47    1
    52    14    48    1
    53    15    49    1
    54    24    50    1
    55    24    51    1
    56    24    52    1
    57    25    53    1
    58    25    54    1
    59    25    55    1
    60    26    56    1
    61    26    57    1
    62    27    58    1
    63    27    59    1
    64    29    60    1
    65    29    61    1
    66    29    62    1
    67    30    63    1
    68    30    64    1
    69    30    65    1
    70    34    66    1
    71    35    67    1
    72    68     1    1
    73    68    33    1
    74    68    18    1
    75    68    11    1
@<TRIPOS>MOLECULE
*****
 68 75 0 0 0
SMALL
GASTEIGER

@<TRIPOS>ATOM
      1 O           1.5248   -0.5223   -0.6404 O.2     1  UNL1        0.0000
      2 C          -0.9267   -0.2077   -0.7684 C.2     1  UNL1        0.0000
      3 N          -1.2606   -0.8309    2.2863 N.am    1  UNL1        0.0000
      4 C          -1.1727   -0.3512    2.3717 C.3     1  UNL1        0.0000
      5 C          -0.8408   -0.8604    2.5901 C.3     1  UNL1        0.0000
      6 C           0.8884   -2.0851    2.0137 C.3     1  UNL1        0.0000
      7 C          -1.7757   -2.1788    0.0003 C.3     1  UNL1        0.0000
      8 C           0.0499    2.1427    0.3191 C.ar    1  UNL1        0.0000
      9 C           1.2455    0.8812    0.7559 C.ar    1  UNL1        0.0000
     10 C          -0.0827   -0.2441   -3.7895 C.ar    1  UNL1        0.0000
     11 N           0.4897    2.3073   -0.3048 N.ar    1  UNL1        0.0000
     12 C           0.5373    2.0470   -2.0842 C.ar    1  UNL1        0.0000
     13 C          -1.5103    0.4207   -3.0954 C.ar    1  UNL1        0.0000
     14 C           0.1664   -2.3044    0.1787 C.ar    1  UNL1        0.0000
     15 C           0.0686   -2.3434    0.1768 C.ar    1  UNL1        0.0000
     16 C           0.1951   -1.3784   -1.9948 C.ar    1  UNL1        0.0000
     17 C           1.7257   -1.1642   -1.8225 C.ar    1  UNL1        0.0000
     18 N           0.5473   -0.5143    1.2998 N.ar    1  UNL1        0.0000
     19 C          -0.1420   -0.6217    0.9248 C.ar    1  UNL1        0.0000
     20 C          -0.2200   -0.5923    0.9514 C.ar    1  UNL1        0.0000
     21 N          -1.9925    0.7889   -1.0808 N.ar    1  UNL1        0.0000
     22 C          -0.2714    0.5714   -2.1098 C.ar    1  UNL1        0.0000
     23 C          -0.8593   -2.6798   -1.4923 C.3     1  UNL1        0.0000
     24 C          -1.3767    1.1601    0.5289 C.3     1  UNL1        0.0000
     25 C           1.6224    0.5392   -1.7351 C.3     1  UNL1        0.0000
     26 C          -1.4192    1.1075    0.5651 C.3     1  UNL1        0.0000
     27 C          -2.1271   -0.4469    0.4579 C.3     1  UNL1        0.0000
     28 C           2.2413   -0.8743    1.4241 C.3     1  UNL1        0.0000
     29 C          -0.1879    1.0169    1.8330 C.3     1  UNL1        0.0000
     30 C          -2.1171   -0.5235    0.4575 C.3     1  UNL1        0.0000
     31 C          -0.1933    0.5873   -1.9960 C.ar    1  UNL1        0.0000
     32 N          -1.2915    2.9292    0.8279 N.ar    1  UNL1        0.0000
     33 N           0.8431    2.1903    1.7146 N.ar    1  UNL1        0.0000
     34 C          -0.0532   -0.3443    0.6964 C.ar    1  UNL1        0.0000
     35 C           0.2499    0.7235   -0.4697 C.ar    1  UNL1        0.0000
     36 H          -1.9669    0.0750    1.8948 H       1  UNL1        0.0000
     37 H           0.4454   -3.4423    1.2083 H       1  UNL1        0.0000
     38 H          -0.7202    2.1759    2.6411 H       1  UNL1        0.0000
     39 H           0.3645   -2.7939   -2.5787 H       1  UNL1        0.0000
     40 H          -2.0699   -1.4065    2.0604 H       1  UNL1        0.0000
     41 H           1.6334   -2.2687    1.2898 H       1  UNL1        0.0000
     42 H          -2.7288   -0.6599   -1.0641 H       1  UNL1        0.0000
     43 H          -0.6341    1.6238   -3.1071 H       1  UNL1        0.0000
     44 H           2.0165    1.4882   -0.6952 H       1  UNL1        0.0000
     45 H           2.4408   -1.3508    0.0552 H       1  UNL1        0.0000
     46 H          -3.1028   -1.3152    1.4786 H       1  UNL1        0.0000
     47 H           0.2419    0.1346   -3.9132 H       1  UNL1        0.0000
     48 H           3.2234   -0.7481   -1.1903 H       1  UNL1        0.0000
     49 H          -0.6585    0.6897    3.2706 H       1  UNL1        0.0000
     50 H          -0.6723   -2.0719    1.5569 H       1  UNL1        0.0000
     51 H          -1.1952   -2.2956   -1.7876 H       1  UNL1        0.0000
     52 H          -0.8920    2.9938   -0.6107 H       1  UNL1        0.0000
     53 H          -0.0930   -2.7986   -1.2541 H       1  UNL1        0.0000
     54 H          -1.0719    1.8130   -1.0196 H       1  UNL1        0.0000
     55 H           0.5560   -2.4787   -1.2217 H       1  UNL1        0.0000
     56 H           2.6521    0.6424    0.8713 H       1  UNL1        0.0000
     57 H           1.1715   -1.7671   -3.0228 H       1  UNL1        0.0000
     58 H          -1.4927   -1.1590   -2.4299 H       1  UNL1        0.0000
     59 H           0.8191    0.1019    2.5025 H       1  UNL1        0.0000
     60 H          -2.5718    1.8527   -0.2036 H       1  UNL1        0.0000
     61 H           1.1371    1.0844   -3.0208 H       1  UNL1        0.0000
     62 H           1.1750    1.1008   -3.0180 H       1  UNL1        0.0000
     63 H           1.7669    2.9027   -0.6891 H       1  UNL1        0.0000
     64 H           3.1488   -0.1110   -0.0654 H       1  UNL1        0.0000
     65 H          -1.3393   -3.8991    0.9013 H       1  UNL1        0.0000
     66 H          -1.6283    1.2542    2.2598 H       1  UNL1        0.0000
     67 H           2.2281    2.3810    1.1258 H       1  UNL1        0.0000
     68 EU          1.2689    2.1366    0.3150 Eu      1  UNL1        0.0000
@<TRIPOS>BOND
     1     1     2    2
     2     2     3   am
     3     3     4    1
     4     3     5    1
     5     5     6    1
     6     6     7    1
     7     2     8    1
     8     8     9   ar
     9     9    10   ar
    10     8    11   ar
    11    11    12   ar
    12    12    13   ar
    13    10    13   ar
    14    13    14   ar
    15    14    15   ar
    16    15    16   ar
    17    16    17   ar
    18    12    17   ar
    19    17    18   ar
    20    18    19   ar
    21    19    20    1
    22    20    21   ar
    23    21    22   ar
    24    22    23    1
    25    23    24    1
    26    23    25    1
    27    23    26    1
    28    26    27    1
    29    27    28    1
    30    28    29    1
    31    28    30    1
    32    22    31   ar
    33    28    31    1
    34    31    32   ar
    35    32    33   ar
    36    20    33   ar
    37    19    34   ar
    38    34    35   ar
    39    16    35   ar
    40     4    36    1
    41     4    37    1
    42     4    38    1
    43     5    39    1
    44     5    40    1
    45     6    41    1
    46     6    42    1
    47     7    43    1
    48     7    44    1
    49     7    45    1
    50     9    46    1
    51    10    47    1
    52    14    48    1
    53    15    49    1
    54    24    50    1
    55    24    51    1
    56    24    52    1
    57    25    53    1
    58    25    54    1
    59    25    55    1
    60    26    56    1
    61    26    57    1
    62    27    58    1
    63    27    59    1
    64    29    60    1
    65    29    61    1
    66    29    62    1
    67    30    63    1
    68    30    64    1
    69    30    65    1
    70    34    66    1
    71    35    67    1
    72    68     1    1
    73    68    33    1
    74    68    18    1
    75    68    11    1
@<TRIPOS>MOLECULE
*****
 68 75 0 0 0
SMALL
GASTEIGER

@<TRIPOS>ATOM
      1 O           1.5248   -0.5223   -0.6404 O.2     1  UNL1        0.0000
      2 C          -0.9267   -0.2077   -0.7684 C.2     1  UNL1        0.0000
      3 N          -1.2606   -0.8309    2.2863 N.am    1  UNL1        0.0000
      4 C          -1.1727   -0.3512    2.3717 C.3     1  UNL1        0.0000
      5 C          -0.8408   -0.8604    2.5901 C.3     1  UNL1        0.0000
      6 C           0.8884   -2.0851    2.0137 C.3     1  UNL1        0.0000
      7 C          -1.7757   -2.1788    0.0003 C.3     1  UNL1        0.0000
      8 C           0.0499    2.1427    0.3191 C.ar    1  UNL1        0.0000
      9 C           1.2455    0.8812    0.7559 C.ar    1  UNL1        0.0000
     10 C          -0.0827   -0.2441   -3.7895 C.ar    1  UNL1        0.0000
     11 N           0.4897    2.3073   -0.3048 N.ar    1  UNL1        0.0000
     12 C           0.5373    2.0470   -2.0842 C.ar    1  UNL1        0.0000
     13 C          -1.5103    0.4207   -3.0954 C.ar    1  UNL1        0.0000
     14 C           0.1664   -2.3044    0.1787 C.ar    1  UNL1        0.0000
     15 C           0.0686   -2.3434    0.1768 C.ar    1  UNL1        0.0000
     16 C           0.1951   -1.3784   -1.9948 C.ar    1  UNL1        0.0000
     17 C           1.7257   -1.1642   -1.8225 C.ar    1  UNL1        0.0000
     18 N           0.5473   -0.5143    1.2998 N.ar    1  UNL1        0.0000
     19 C          -0.1420   -0.6217    0.9248 C.ar    1  UNL1        0.0000
     20 C          -0.2200   -0.5923    0.9514 C.ar    1  UNL1        0.0000
     21 N          -1.9925    0.7889   -1.0808 N.ar    1  UNL1        0.0000
     22 C          -0.2714    0.5714   -2.1098 C.ar    1  UNL1        0.0000
     23 C          -0.8593   -2.6798   -1.4923 C.3     1  UNL1        0.0000
     24 C          -1.3767    1.1601    0.5289 C.3     1  UNL1        0.0000
     25 C           1.6224    0.5392   -1.7351 C.3     1  UNL1        0.0000
     26 C          -1.4192    1.1075    0.5651 C.3     1  UNL1        0.0000
     27 C          -2.1271   -0.4469    0.4579 C.3     1  UNL1        0.0000
     28 C           2.2413   -0.8743    1.4241 C.3     1  UNL1        0.0000
     29 C          -0.1879    1.0169    1.8330 C.3     1  UNL1        0.0000
     30 C          -2.1171   -0.5235    0.4575 C.3     1  UNL1        0.0000
     31 C          -0.1933    0.5873   -1.9960 C.ar    1  UNL1        0.0000
     32 N          -1.2915    2.9292    0.8279 N.ar    1  UNL1        0.0000
     33 N           0.8431    2.1903    1.7146 N.ar    1  UNL1        0.0000
     34 C          -0.0532   -0.3443    0.6964 C.ar    1  UNL1        0.0000
     35 C           0.2499    0.7235   -0.4697 C.ar    1  UNL1        0.0000
     36 H          -1.9669    0.0750    1.8948 H       1  UNL1        0.0000
     37 H           0.4454   -3.4423    1.2083 H       1  UNL1        0.0000
     38 H          -0.7202    2.1759    2.6411 H       1  UNL1        0.0000
     39 H           0.3645   -2.7939   -2.5787 H       1  UNL1        0.0000
     40 H          -2.0699   -1.4065    2.0604 H       1  UNL1        0.0000
     41 H           1.6334   -2.2687    1.2898 H       1  UNL1        0.0000
     42 H          -2.7288   -0.6599   -1.0641 H       1  UNL1        0.0000
     43 H          -0.6341    1.6238   -3.1071 H       1  UNL1        0.0000
     44 H           2.0165    1.4882   -0.6952 H       1  UNL1        0.0000
     45 H           2.4408   -1.3508    0.0552 H       1  UNL1        0.0000
     46 H          -3.1028   -1.3152    1.4786 H       1  UNL1        0.0000
     47 H           0.2419    0.1346   -3.9132 H       1  UNL1        0.0000
     48 H           3.2234   -0.7481   -1.1903 H       1  UNL1        0.0000
     49 H          -0.6585    0.6897    3.2706 H       1  UNL1        0.0000
     50 H          -0.6723   -2.0719    1.5569 H       1  UNL1        0.0000
     51 H          -1.1952   -2.2956   -1.7876 H       1  UNL1        0.0000
     52 H          -0.8920    2.9938   -0.6107 H       1  UNL1        0.0000
     53 H          -0.0930   -2.7986   -1.2541 H       1  UNL1        0.0000
     54 H          -1.0719    1.8130   -1.0196 H       1  UNL1        0.0000
     55 H           0.5560   -2.4787   -1.2217 H       1  UNL1        0.0000
     56 H           2.6521    0.6424    0.8713 H       1  UNL1        0.0000
     57 H           1.1715   -1.7671   -3.0228 H       1  UNL1        0.0000
     58 H          -1.4927   -1.1590   -2.4299 H       1  UNL1        0.0000
     59 H           0.8191    0.1019    2.5025 H       1  UNL1        0.0000
     60 H          -2.5718    1.8527   -0.2036 H       1  UNL1        0.0000
     61 H           1.1371    1.0844   -3.0208 H       1  UNL1        0.0000
     62 H           1.1750    1.1008   -3.0180 H       1  UNL1        0.0000
     63 H           1.7669    2.9027   -0.6891 H       1  UNL1        0.0000
     64 H           3.1488   -0.1110   -0.0654 H       1  UNL1        0.0000
     65 H          -1.3393   -3.8991    0.9013 H       1  UNL1        0.0000
     66 H          -1.6283    1.2542    2.2598 H       1  UNL1        0.0000
     67 H           2.2281    2.3810    1.1258 H       1  UNL1        0.0000
     68 EU          1.2689    2.1366    0.3150 Eu      1  UNL1        0.0000
@<TRIPOS>BOND
     1     1     2    2
     2     2     3   am
     3     3     4    1
     4     3     5    1
     5     5     6    1
     6     6     7    1
     7     2     8    1
     8     8     9   ar
     9     9    10   ar
    10     8    11   ar
    11    11    12   ar
    12    12    13   ar
    13    10    13   ar
    14    13    14   ar
    15    14    15   ar
    16    15    16   ar
    17    16    17   ar
    18    12    17   ar
    19    17    18   ar
    20    18    19   ar
    21    19    20    1
    22    20    21   ar
    23    21    22   ar
    24    22    23    1
    25    23    24    1
    26    23    25    1
    27    23    26    1
    28    26    27    1
    29    27    28    1
    30    28    29    1
    31    28    30    1
    32    22    31   ar
    33    28    31    1
    34    31    32   ar
    35    32    33   ar
    36    20    33   ar
    37    19    34   ar
    38    34    35   ar
    39    16    35   ar
    40     4    36    1
    41     4    37    1
    42     4    38    1
    43     5    39    1
    44     5    40    1
    45     6    41    1
    46     6    42    1
    47     7    43    1
    48     7    44    1
    49     7    45    1
    50     9    46    1
    51    10    47    1
    52    14    48    1
    53    15    49    1
    54    24    50    1
    55    24    51    1
    56    24    52    1
    57    25    53    1
    58    25    54    1
    59    25    55    1
    60    26    56    1
    61    26    57    1
    62    27    58    1
    63    27    59    1
    64    29    60    1
    65    29    61    1
    66    29    62    1
    67    30    63    1
    68    30    64    1
    69    30    65    1
    70    34    66    1
    71    35    67    1
    72    68     1    1
    73    68    33    1
    74    68    18    1
    75    68    11    1
@<TRIPOS>MOLECULE
*****
 68 75 0 0 0
SMALL
GASTEIGER

@<TRIPOS>ATOM
      1 O           1.5248   -0.5223   -0.6404 O.2     1  UNL1        0.0000
      2 C          -0.9267   -0.2077   -0.7684 C.2     1  UNL1        0.0000
      3 N          -1.2606   -0.8309    2.2863 N.am    1  UNL1        0.0000
      4 C          -1.1727   -0.3512    2.3717 C.3     1  UNL1        0.0000
      5 C          -0.8408   -0.8604    2.5901 C.3     1  UNL1        0.0000
      6 C           0.8884   -2.0851    2.0137 C.3     1  UNL1        0.0000
      7 C          -1.7757   -2.1788    0.0003 C.3     1  UNL1        0.0000
      8 C           0.0499    2.1427    0.3191 C.ar    1  UNL1        0.0000
      9 C           1.2455    0.8812    0.7559 C.ar    1  UNL1        0.0000
     10 C          -0.0827   -0.2441   -3.7895 C.ar    1  UNL1        0.0000
     11 N           0.4897    2.3073   -0.3048 N.ar    1  UNL1        0.0000
     12 C           0.5373    2.0470   -2.0842 C.ar    1  UNL1        0.0000
     13 C          -1.5103    0.4207   -3.0954 C.ar    1  UNL1        0.0000
     14 C           0.1664   -2.3044    0.1787 C.ar    1  UNL1        0.0000
     15 C           0.0686   -2.3434    0.1768 C.ar    1  UNL1        0.0000
     16 C           0.1951   -1.3784   -1.9948 C.ar    1  UNL1        0.0000
     17 C           1.7257   -1.1642   -1.8225 C.ar    1  UNL1        0.0000
     18 N           0.5473   -0.5143    1.2998 N.ar    1  UNL1        0.0000
     19 C          -0.1420   -0.6217    0.9248 C.ar    1  UNL1        0.0000
     20 C          -0.2200   -0.5923    0.9514 C.ar    1  UNL1        0.0000
     21 N          -1.9925    0.7889   -1.0808 N.ar    1  UNL1        0.0000
     22 C          -0.2714    0.5714   -2.1098 C.ar    1  UNL1        0.0000
     23 C          -0.8593   -2.6798   -1.4923 C.3     1  UNL1        0.0000
     24 C          -1.3767    1.1601    0.5289 C.3     1  UNL1        0.0000
     25 C           1.6224    0.5392   -1.7351 C.3     1  UNL1        0.0000
     26 C          -1.4192    1.1075    0.5651 C.3     1  UNL1        0.0000
     27 C          -2.1271   -0.4469    0.4579 C.3     1  UNL1        0.0000
     28 C           2.2413   -0.8743    1.4241 C.3     1  UNL1        0.0000
     29 C          -0.1879    1.0169    1.8330 C.3     1  UNL1        0.0000
     30 C          -2.1171   -0.5235    0.4575 C.3     1  UNL1        0.0000
     31 C          -0.1933    0.5873   -1.9960 C.ar    1  UNL1        0.0000
     32 N          -1.2915    2.9292    0.8279 N.ar    1  UNL1        0.0000
     33 N           0.8431    2.1903    1.7146 N.ar    1  UNL1        0.0000
     34 C          -0.0532   -0.3443    0.6964 C.ar    1  UNL1        0.0000
     35 C           0.2499    0.7235   -0.4697 C.ar    1  UNL1        0.0000
     36 H          -1.9669    0.0750    1.8948 H       1  UNL1        0.0000
     37 H           0.4454   -3.4423    1.2083 H       1  UNL1        0.0000
     38 H          -0.7202    2.1759    2.6411 H       1  UNL1        0.0000
     39 H           0.3645   -2.7939   -2.5787 H       1  UNL1        0.0000
     40 H          -2.0699   -1.4065    2.0604 H       1  UNL1        0.0000
     41 H           1.6334   -2.2687    1.2898 H       1  UNL1        0.0000
     42 H          -2.7288   -0.6599   -1.0641 H       1  UNL1        0.0000
     43 H          -0.6341    1.6238   -3.1071 H       1  UNL1        0.0000
     44 H           2.0165    1.4882   -0.6952 H       1  UNL1        0.0000
     45 H           2.4408   -1.3508    0.0552 H       1  UNL1        0.0000
     46 H          -3.1028   -1.3152    1.4786 H       1  UNL1        0.0000
     47 H           0.2419    0.1346   -3.9132 H       1  UNL1        0.0000
     48 H           3.2234   -0.7481   -1.1903 H       1  UNL1        0.0000
     49 H          -0.6585    0.6897    3.2706 H       1  UNL1        0.0000
     50 H          -0.6723   -2.0719    1.5569 H       1  UNL1        0.0000
     51 H          -1.1952   -2.2956   -1.7876 H       1  UNL1        0.0000
     52 H          -0.8920    2.9938   -0.6107 H       1  UNL1        0.0000
     53 H          -0.0930   -2.7986   -1.2541 H       1  UNL1        0.0000
     54 H          -1.0719    1.8130   -1.0196 H       1  UNL1        0.0000
     55 H           0.5560   -2.4787   -1.2217 H       1  UNL1        0.0000
     56 H           2.6521    0.6424    0.8713 H       1  UNL1        0.0000
     57 H           1.1715   -1.7671   -3.0228 H       1  UNL1        0.0000
     58 H          -1.4927   -1.1590   -2.4299 H       1  UNL1        0.0000
     59 H           0.8191    0.1019    2.5025 H       1  UNL1        0.0000
     60 H          -2.5718    1.8527   -0.2036 H       1  UNL1        0.0000
     61 H           1.1371    1.0844   -3.0208 H       1  UNL1        0.0000
     62 H           1.1750    1.1008   -3.0180 H       1  UNL1        0.0000
     63 H           1.7669    2.9027   -0.6891 H       1  UNL1        0.0000
     64 H           3.1488   -0.1110   -0.0654 H       1  UNL1        0.0000
     65 H          -1.3393   -3.8991    0.9013 H       1  UNL1        0.0000
     66 H          -1.6283    1.2542    2.2598 H       1  UNL1        0.0000
     67 H           2.2281    2.3810    1.1258 H       1  UNL1        0.0000
     68 EU          1.2689    2.1366    0.3150 Eu      1  UNL1        0.0000
@<TRIPOS>BOND
     1     1     2    2
     2     2     3   am
     3     3     4    1
     4     3     5    1
     5     5     6    1
     6     6     7    1
     7     2     8    1
     8     8     9   ar
     9     9    10   ar
    10     8    11   ar
    11    11    12   ar
    12    12    13   ar
    13    10    13   ar
    14    13    14   ar
    15    14    15   ar
    16    15    16   ar
    17    16    17   ar
    18    12    17   ar
    19    17    18   ar
    20    18    19   ar
    21    19    20    1
    22    20    21   ar
    23    21    22   ar
    24    22    23    1
    25    23    24    1
    26    23    25    1
    27    23    26    1
    28    26    27    1
    29    27    28    1
    30    28    29    1
    31    28    30    1
    32    22    31   ar
    33    28    31    1
    34    31    32   ar
    35    32    33   ar
    36    20    33   ar
    37    19    34   ar
    38    34    35   ar
    39    16    35   ar
    40     4    36    1
    41     4    37    1
    42     4    38    1
    43     5    39    1
    44     5    40    1
    45     6    41    1
    46     6    42    1
    47     7    43    1
    48     7    44    1
    49     7    45    1
    50     9    46    1
    51    10    47    1
    52    14    48    1
    53    15    49    1
    54    24    50    1
    55    24    51    1
    56    24    52    1
    57    25    53    1
    58    25    54    1
    59    25    55    1
    60    26    56    1
    61    26    57    1
    62    27    58    1
    63    27    59    1
    64    29    60    1
    65    29    61    1
    66    29    62    1
    67    30    63    1
    68    30    64    1
    69    30    65    1
    70    34    66    1
    71    35    67    1
    72    68     1    1
    73    68    33    1
    74    68    18    1
    75    68    11    1
@<TRIPOS>MOLECULE
*****
 68 75 0 0 0
SMALL
GASTEIGER

@<TRIPOS>ATOM
      1 O           1.5248   -0.5223   -0.6404 O.2     1  UNL1        0.0000
      2 C          -0.9267   -0.2077   -0.7684 C.2     1  UNL1        0.0000
      3 N          -1.2606   -0.8309    2.2863 N.am    1  UNL1        0.0000
      4 C          -1.1727   -0.3512    2.3717 C.3     1  UNL1        0.0000
      5 C          -0.8408   -0.8604    2.5901 C.3     1  UNL1        0.0000
      6 C           0.8884   -2.0851    2.0137 C.3     1  UNL1        0.0000
      7 C          -1.7757   -2.1788    0.0003 C.3     1  UNL1        0.0000
      8 C           0.0499    2.1427    0.3191 C.ar    1  UNL1        0.0000
      9 C           1.2455    0.8812    0.7559 C.ar    1  UNL1        0.0000
     10 C          -0.0827   -0.2441   -3.7895 C.ar    1  UNL1        0.0000
     11 N           0.4897    2.3073   -0.3048 N.ar    1  UNL1        0.0000
     12 C           0.5373    2.0470   -2.0842 C.ar    1  UNL1        0.0000
     13 C          -1.5103    0.4207   -3.0954 C.ar    1  UNL1        0.0000
     14 C           0.1664   -2.3044    0.1787 C.ar    1  UNL1        0.0000
     15 C           0.0686   -2.3434    0.1768 C.ar    1  UNL1        0.0000
     16 C           0.1951   -1.3784   -1.9948 C.ar    1  UNL1        0.0000
     17 C           1.7257   -1.1642   -1.8225 C.ar    1  UNL1        0.0000
     18 N           0.5473   -0.5143    1.2998 N.ar    1  UNL1        0.0000
     19 C          -0.1420   -0.6217    0.9248 C.ar    1  UNL1        0.0000
     20 C          -0.2200   -0.5923    0.9514 C.ar    1  UNL1        0.0000
     21 N          -1.9925    0.7889   -1.0808 N.ar    1  UNL1        0.0000
     22 C          -0.2714    0.5714   -2.1098 C.ar    1  UNL1        0.0000
     23 C          -0.8593   -2.6798   -1.4923 C.3     1  UNL1        0.0000
     24 C          -1.3767    1.1601    0.5289 C.3     1  UNL1        0.0000
     25 C           1.6224    0.5392   -1.7351 C.3     1  UNL1        0.0000
     26 C          -1.4192    1.1075    0.5651 C.3     1  UNL1        0.0000
     27 C          -2.1271   -0.4469    0.4579 C.3     1  UNL1        0.0000
     28 C           2.2413   -0.8743    1.4241 C.3     1  UNL1        0.0000
     29 C          -0.1879    1.0169    1.8330 C.3     1  UNL1        0.0000
     30 C          -2.1171   -0.5235    0.4575 C.3     1  UNL1        0.0000
     31 C          -0.1933    0.5873   -1.9960 C.ar    1  UNL1        0.0000
     32 N          -1.2915    2.9292    0.8279 N.ar    1  UNL1        0.0000
     33 N           0.8431    2.1903    1.7146 N.ar    1  UNL1        0.0000
     34 C          -0.0532   -0.3443    0.6964 C.ar    1  UNL1        0.0000
     35 C           0.2499    0.7235   -0.4697 C.ar    1  UNL1        0.0000
     36 H          -1.9669    0.0750    1.8948 H       1  UNL1        0.0000
     37 H           0.4454   -3.4423    1.2083 H       1  UNL1        0.0000
     38 H          -0.7202    2.1759    2.6411 H       1  UNL1        0.0000
     39 H           0.3645   -2.7939   -2.5787 H       1  UNL1        0.0000
     40 H          -2.0699   -1.4065    2.0604 H       1  UNL1        0.0000
     41 H           1.6334   -2.2687    1.2898 H       1  UNL1        0.0000
     42 H          -2.7288   -0.6599   -1.0641 H       1  UNL1        0.0000
     43 H          -0.6341    1.6238   -3.1071 H       1  UNL1        0.0000
     44 H           2.0165    1.4882   -0.6952 H       1  UNL1        0.0000
     45 H           2.4408   -1.3508    0.0552 H       1  UNL1        0.0000
     46 H          -3.1028   -1.3152    1.4786 H       1  UNL1        0.0000
     47 H           0.2419    0.1346   -3.9132 H       1  UNL1        0.0000
     48 H           3.2234   -0.7481   -1.1903 H       1  UNL1        0.0000
     49 H          -0.6585    0.6897    3.2706 H       1  UNL1        0.0000
     50 H          -0.6723   -2.0719    1.5569 H       1  UNL1        0.0000
     51 H          -1.1952   -2.2956   -1.7876 H       1  UNL1        0.0000
     52 H          -0.8920    2.9938   -0.6107 H       1  UNL1        0.0000
     53 H          -0.0930   -2.7986   -1.2541 H       1  UNL1        0.0000
     54 H          -1.0719    1.8130   -1.0196 H       1  UNL1        0.0000
     55 H           0.5560   -2.4787   -1.2217 H       1  UNL1        0.0000
     56 H           2.6521    0.6424    0.8713 H       1  UNL1        0.0000
     57 H           1.1715   -1.7671   -3.0228 H       1  UNL1        0.0000
     58 H          -1.4927   -1.1590   -2.4299 H       1  UNL1        0.0000
     59 H           0.8191    0.1019    2.5025 H       1  UNL1        0.0000
     60 H          -2.5718    1.8527   -0.2036 H       1  UNL1        0.0000
     61 H           1.1371    1.0844   -3.0208 H       1  UNL1        0.0000
     62 H           1.1750    1.1008   -3.0180 H       1  UNL1        0.0000
     63 H           1.7669    2.9027   -0.6891 H       1  UNL1        0.0000
     64 H           3.1488   -0.1110   -0.0654 H       1  UNL1        0.0000
     65 H          -1.3393   -3.8991    0.9013 H       1  UNL1        0.0000
     66 H          -1.6283    1.2542    2.2598 H       1  UNL1        0.0000
     67 H           2.2281    2.3810    1.1258 H       1  UNL1        0.0000
     68 EU          1.2689    2.1366    0.3150 Eu      1  UNL1        0.0000
@<TRIPOS>BOND
     1     1     2    2
     2     2     3   am
     3     3     4    1
     4     3     5    1
     5     5     6    1
     6     6     7    1
     7     2     8    1
     8     8     9   ar
     9     9    10   ar
    10     8    11   ar
    11    11    12   ar
    12    12    13   ar
    13    10    13   ar
    14    13    14   ar
    15    14    15   ar
    16    15    16   ar
    17    16    17   ar
    18    12    17   ar
    19    17    18   ar
    20    18    19   ar
    21    19    20    1
    22    20    21   ar
    23    21    22   ar
    24    22    23    1
    25    23    24    1
    26    23    25    1
    27    23    26    1
    28    26    27    1
    29    27    28    1
    30    28    29    1
    31    28    30    1
    32    22    31   ar
    33    28    31    1
    34    31    32   ar
    35    32    33   ar
    36    20    33   ar
    37    19    34   ar
    38    34    35   ar
    39    16    35   ar
    40     4    36    1
    41     4    37    1
    42     4    38    1
    43     5    39    1
    44     5    40    1
    45     6    41    1
    46     6    42    1
    47     7    43    1
    48     7    44    1
    49     7    45    1
    50     9    46    1
    51    10    47    1
    52    14    48    1
    53    15    49    1
    54    24    50    1
    55    24    51    1
    56    24    52    1
    57    25    53    1
    58    25    54    1
    59    25    55    1
    60    26    56    1
    61    26    57    1
    62    27    58    1
    63    27    59    1
    64    29    60    1
    65    29    61    1
    66    29    62    1
    67    30    63    1
    68    30    64    1
    69    30    65    1
    70    34    66    1
    71    35    67    1
    72    68     1    1
    73    68    33    1
    74    68    18    1
    75    68    11    1
@<TRIPOS>MOLECULE
*****
 68 75 0 0 0
SMALL
GASTEIGER

@<TRIPOS>ATOM
      1 O           1.5248   -0.5223   -0.6404 O.2     1  UNL1        0.0000
      2 C          -0.9267   -0.2077   -0.7684 C.2     1  UNL1        0.0000
      3 N          -1.2606   -0.8309    2.2863 N.am    1  UNL1        0.0000
      4 C          -1.1727   -0.3512    2.3717 C.3     1  UNL1        0.0000
      5 C          -0.8408   -0.8604    2.5901 C.3     1  UNL1        0.0000
      6 C           0.8884   -2.0851    2.0137 C.3     1  UNL1        0.0000
      7 C          -1.7757   -2.1788    0.0003 C.3     1  UNL1        0.0000
      8 C           0.0499    2.1427    0.3191 C.ar    1  UNL1        0.0000
      9 C           1.2455    0.8812    0.7559 C.ar    1  UNL1        0.0000
     10 C          -0.0827   -0.2441   -3.7895 C.ar    1  UNL1        0.0000
     11 N           0.4897    2.3073   -0.3048 N.ar    1  UNL1        0.0000
     12 C           0.5373    2.0470   -2.0842 C.ar    1  UNL1        0.0000
     13 C          -1.5103    0.4207   -3.0954 C.ar    1  UNL1        0.0000
     14 C           0.1664   -2.3044    0.1787 C.ar    1  UNL1        0.0000
     15 C           0.0686   -2.3434    0.1768 C.ar    1  UNL1        0.0000
     16 C           0.1951   -1.3784   -1.9948 C.ar    1  UNL1        0.0000
     17 C           1.7257   -1.1642   -1.8225 C.ar    1  UNL1        0.0000
     18 N           0.5473   -0.5143    1.2998 N.ar    1  UNL1        0.0000
     19 C          -0.1420   -0.6217    0.9248 C.ar    1  UNL1        0.0000
     20 C          -0.2200   -0.5923    0.9514 C.ar    1  UNL1        0.0000
     21 N          -1.9925    0.7889   -1.0808 N.ar    1  UNL1        0.0000
     22 C          -0.2714    0.5714   -2.1098 C.ar    1  UNL1        0.0000
     23 C          -0.8593   -2.6798   -1.4923 C.3     1  UNL1        0.0000
     24 C          -1.3767    1.1601    0.5289 C.3     1  UNL1        0.0000
     25 C           1.6224    0.5392   -1.7351 C.3     1  UNL1        0.0000
     26 C          -1.4192    1.1075    0.5651 C.3     1  UNL1        0.0000
     27 C          -2.1271   -0.4469    0.4579 C.3     1  UNL1        0.0000
     28 C           2.2413   -0.8743    1.4241 C.3     1  UNL1        0.0000
     29 C          -0.1879    1.0169    1.8330 C.3     1  UNL1        0.0000
     30 C          -2.1171   -0.5235    0.4575 C.3     1  UNL1        0.0000
     31 C          -0.1933    0.5873   -1.9960 C.ar    1  UNL1        0.0000
     32 N          -1.2915    2.9292    0.8279 N.ar    1  UNL1        0.0000
     33 N           0.8431    2.1903    1.7146 N.ar    1  UNL1        0.0000
     34 C          -0.0532   -0.3443    0.6964 C.ar    1  UNL1        0.0000
     35 C           0.2499    0.7235   -0.4697 C.ar    1  UNL1        0.0000
     36 H          -1.9669    0.0750    1.8948 H       1  UNL1        0.0000
     37 H           0.4454   -3.4423    1.2083 H       1  UNL1        0.0000
     38 H          -0.7202    2.1759    2.6411 H       1  UNL1        0.0000
     39 H           0.3645   -2.7939   -2.5787 H       1  UNL1        0.0000
     40 H          -2.0699   -1.4065    2.0604 H       1  UNL1        0.0000
     41 H           1.6334   -2.2687    1.2898 H       1  UNL1        0.0000
     42 H          -2.7288   -0.6599   -1.0641 H       1  UNL1        0.0000
     43 H          -0.6341    1.6238   -3.1071 H       1  UNL1        0.0000
     44 H           2.0165    1.4882   -0.6952 H       1  UNL1        0.0000
     45 H           2.4408   -1.3508    0.0552 H       1  UNL1        0.0000
     46 H          -3.1028   -1.3152    1.4786 H       1  UNL1        0.0000
     47 H           0.2419    0.1346   -3.9132 H       1  UNL1        0.0000
     48 H           3.2234   -0.7481   -1.1903 H       1  UNL1        0.0000
     49 H          -0.6585    0.6897    3.2706 H       1  UNL1        0.0000
     50 H          -0.6723   -2.0719    1.5569 H       1  UNL1        0.0000
     51 H          -1.1952   -2.2956   -1.7876 H       1  UNL1        0.0000
     52 H          -0.8920    2.9938   -0.6107 H       1  UNL1        0.0000
     53 H          -0.0930   -2.7986   -1.2541 H       1  UNL1        0.0000
     54 H          -1.0719    1.8130   -1.0196 H       1  UNL1        0.0000
     55 H           0.5560   -2.4787   -1.2217 H       1  UNL1        0.0000
     56 H           2.6521    0.6424    0.8713 H       1  UNL1        0.0000
     57 H           1.1715   -1.7671   -3.0228 H       1  UNL1        0.0000
     58 H          -1.4927   -1.1590   -2.4299 H       1  UNL1        0.0000
     59 H           0.8191    0.1019    2.5025 H       1  UNL1        0.0000
     60 H          -2.5718    1.8527   -0.2036 H       1  UNL1        0.0000
     61 H           1.1371    1.0844   -3.0208 H       1  UNL1        0.0000
     62 H           1.1750    1.1008   -3.0180 H       1  UNL1        0.0000
     63 H           1.7669    2.9027   -0.6891 H       1  UNL1        0.0000
     64 H           3.1488   -0.1110   -0.0654 H       1  UNL1        0.0000
     65 H          -1.3393   -3.8991    0.9013 H       1  UNL1        0.0000
     66 H          -1.6283    1.2542    2.2598 H       1  UNL1        0.0000
     67 H           2.2281    2.3810    1.1258 H       1  UNL1        0.0000
     68 EU          1.2689    2.1366    0.3150 Eu      1  UNL1        0.0000
@<TRIPOS>BOND
     1     1     2    2
     2     2     3   am
     3     3     4    1
     4     3     5    1
     5     5     6    1
     6     6     7    1
     7     2     8    1
     8     8     9   ar
     9     9    10   ar
    10     8    11   ar
    11    11    12   ar
    12    12    13   ar
    13    10    13   ar
    14    13    14   ar
    15    14    15   ar
    16    15    16   ar
    17    16    17   ar
    18    12    17   ar
    19    17    18   ar
    20    18    19   ar
    21    19    20    1
    22    20    21   ar
    23    21    22   ar
    24    22    23    1
    25    23    24    1
    26    23    25    1
    27    23    26    1
    28    26    27    1
    29    27    28    1
    30    28    29    1
    31    28    30    1
    32    22    31   ar
    33    28    31    1
    34    31    32   ar
    35    32    33   ar
    36    20    33   ar
    37    19    34   ar
    38    34    35   ar
    39    16    35   ar
    40     4    36    1
    41     4    37    1
    42     4    38    1
    43     5    39    1
    44     5    40    1
    45     6    41    1
    46     6    42    1
    47     7    43    1
    48     7    44    1
    49     7    45    1
    50     9    46    1
    51    10    47    1
    52    14    48    1
    53    15    49    1
    54    24    50    1
    55    24    51    1
    56    24    52    1
    57    25    53    1
    58    25    54    1
    59    25    55    1
    60    26    56    1
    61    26    57    1
    62    27    58    1
    63    27    59    1
    64    29    60    1
    65    29    61    1
    66    29    62    1
    67    30    63    1
    68    30    64    1
    69    30    65    1
    70    34    66    1
    71    35    67    1
    72    68     1    1
    73    68    33    1
    74    68    18    1
    75    68    11    1
@<TRIPOS>MOLECULE
*****
 68 75 0 0 0
SMALL
GASTEIGER

@<TRIPOS>ATOM
      1 O           1.5248   -0.5223   -0.6404 O.2     1  UNL1        0.0000
      2 C          -0.9267   -0.2077   -0.7684 C.2     1  UNL1        0.0000
      3 N          -1.2606   -0.8309    2.2863 N.am    1  UNL1        0.0000
      4 C          -1.1727   -0.3512    2.3717 C.3     1  UNL1        0.0000
      5 C          -0.8408   -0.8604    2.5901 C.3     1  UNL1        0.0000
      6 C           0.8884   -2.0851    2.0137 C.3     1  UNL1        0.0000
      7 C          -1.7757   -2.1788    0.0003 C.3     1  UNL1        0.0000
      8 C           0.0499    2.1427    0.3191 C.ar    1  UNL1        0.0000
      9 C           1.2455    0.8812    0.7559 C.ar    1  UNL1        0.0000
     10 C          -0.0827   -0.2441   -3.7895 C.ar    1  UNL1        0.0000
     11 N           0.4897    2.3073   -0.3048 N.ar    1  UNL1        0.0000
     12 C           0.5373    2.0470   -2.0842 C.ar    1  UNL1        0.0000
     13 C          -1.5103    0.4207   -3.0954 C.ar    1  UNL1        0.0000
     14 C           0.1664   -2.3044    0.1787 C.ar    1  UNL1        0.0000
     15 C           0.0686   -2.3434    0.1768 C.ar    1  UNL1        0.0000
     16 C           0.1951   -1.3784   -1.9948 C.ar    1  UNL1        0.0000
     17 C           1.7257   -1.1642   -1.8225 C.ar    1  UNL1        0.0000
     18 N           0.5473   -0.5143    1.2998 N.ar    1  UNL1        0.0000
     19 C          -0.1420   -0.6217    0.9248 C.ar    1  UNL1        0.0000
     20 C          -0.2200   -0.5923    0.9514 C.ar    1  UNL1        0.0000
     21 N          -1.9925    0.7889   -1.0808 N.ar    1  UNL1        0.0000
     22 C          -0.2714    0.5714   -2.1098 C.ar    1  UNL1        0.0000
     23 C          -0.8593   -2.6798   -1.4923 C.3     1  UNL1        0.0000
     24 C          -1.3767    1.1601    0.5289 C.3     1  UNL1        0.0000
     25 C           1.6224    0.5392   -1.7351 C.3     1  UNL1        0.0000
     26 C          -1.4192    1.1075    0.5651 C.3     1  UNL1        0.0000
     27 C          -2.1271   -0.4469    0.4579 C.3     1  UNL1        0.0000
     28 C           2.2413   -0.8743    1.4241 C.3     1  UNL1        0.0000
     29 C          -0.1879    1.0169    1.8330 C.3     1  UNL1        0.0000
     30 C          -2.1171   -0.5235    0.4575 C.3     1  UNL1        0.0000
     31 C          -0.1933    0.5873   -1.9960 C.ar    1  UNL1        0.0000
     32 N          -1.2915    2.9292    0.8279 N.ar    1  UNL1        0.0000
     33 N           0.8431    2.1903    1.7146 N.ar    1  UNL1        0.0000
     34 C          -0.0532   -0.3443    0.6964 C.ar    1  UNL1        0.0000
     35 C           0.2499    0.7235   -0.4697 C.ar    1  UNL1        0.0000
     36 H          -1.9669    0.0750    1.8948 H       1  UNL1        0.0000
     37 H           0.4454   -3.4423    1.2083 H       1  UNL1        0.0000
     38 H          -0.7202    2.1759    2.6411 H       1  UNL1        0.0000
     39 H           0.3645   -2.7939   -2.5787 H       1  UNL1        0.0000
     40 H          -2.0699   -1.4065    2.0604 H       1  UNL1        0.0000
     41 H           1.6334   -2.2687    1.2898 H       1  UNL1        0.0000
     42 H          -2.7288   -0.6599   -1.0641 H       1  UNL1        0.0000
     43 H          -0.6341    1.6238   -3.1071 H       1  UNL1        0.0000
     44 H           2.0165    1.4882   -0.6952 H       1  UNL1        0.0000
     45 H           2.4408   -1.3508    0.0552 H       1  UNL1        0.0000
     46 H          -3.1028   -1.3152    1.4786 H       1  UNL1        0.0000
     47 H           0.2419    0.1346   -3.9132 H       1  UNL1        0.0000
     48 H           3.2234   -0.7481   -1.1903 H       1  UNL1        0.0000
     49 H          -0.6585    0.6897    3.2706 H       1  UNL1        0.0000
     50 H          -0.6723   -2.0719    1.5569 H       1  UNL1        0.0000
     51 H          -1.1952   -2.2956   -1.7876 H       1  UNL1        0.0000
     52 H          -0.8920    2.9938   -0.6107 H       1  UNL1        0.0000
     53 H          -0.0930   -2.7986   -1.2541 H       1  UNL1        0.0000
     54 H          -1.0719    1.8130   -1.0196 H       1  UNL1        0.0000
     55 H           0.5560   -2.4787   -1.2217 H       1  UNL1        0.0000
     56 H           2.6521    0.6424    0.8713 H       1  UNL1        0.0000
     57 H           1.1715   -1.7671   -3.0228 H       1  UNL1        0.0000
     58 H          -1.4927   -1.1590   -2.4299 H       1  UNL1        0.0000
     59 H           0.8191    0.1019    2.5025 H       1  UNL1        0.0000
     60 H          -2.5718    1.8527   -0.2036 H       1  UNL1        0.0000
     61 H           1.1371    1.0844   -3.0208 H       1  UNL1        0.0000
     62 H           1.1750    1.1008   -3.0180 H       1  UNL1        0.0000
     63 H           1.7669    2.9027   -0.6891 H       1  UNL1        0.0000
     64 H           3.1488   -0.1110   -0.0654 H       1  UNL1        0.0000
     65 H          -1.3393   -3.8991    0.9013 H       1  UNL1        0.0000
     66 H          -1.6283    1.2542    2.2598 H       1  UNL1        0.0000
     67 H           2.2281    2.3810    1.1258 H       1  UNL1        0.0000
     68 EU          1.2689    2.1366    0.3150 Eu      1  UNL1        0.0000
@<TRIPOS>BOND
     1     1     2    2
     2     2     3   am
     3     3     4    1
     4     3     5    1
     5     5     6    1
     6     6     7    1
     7     2     8    1
     8     8     9   ar
     9     9    10   ar
    10     8    11   ar
    11    11    12   ar
    12    12    13   ar
    13    10    13   ar
    14    13    14   ar
    15    14    15   ar
    16    15    16   ar
    17    16    17   ar
    18    12    17   ar
    19    17    18   ar
    20    18    19   ar
    21    19    20    1
    22    20    21   ar
    23    21    22   ar
    24    22    23    1
    25    23    24    1
    26    23    25    1
    27    23    26    1
    28    26    27    1
    29    27    28    1
    30    28    29    1
    31    28    30    1
    32    22    31   ar
    33    28    31    1
    34    31    32   ar
    35    32    33   ar
    36    20    33   ar
    37    19    34   ar
    38    34    35   ar
    39    16    35   ar
    40     4    36    1
    41     4    37    1
    42     4    38    1
    43     5    39    1
    44     5    40    1
    45     6    41    1
    46     6    42    1
    47     7    43    1
    48     7    44    1
    49     7    45    1
    50     9    46    1
    51    10    47    1
    52    14    48    1
    53    15    49    1
    54    24    50    1
    55    24    51    1
    56    24    52    1
    57    25    53    1
    58    25    54    1
    59    25    55    1
    60    26    56    1
    61    26    57    1
    62    27    58    1
    63    27    59    1
    64    29    60    1
    65    29    61    1
    66    29    62    1
    67    30    63    1
    68    30    64    1
    69    30    65    1
    70    34    66    1
    71    35    67    1
    72    68     1    1
    73    68    33    1
    74    68    18    1
    75    68    11    1
@<TRIPOS>MOLECULE
*****
 68 75 0 0 0
SMALL
GASTEIGER

@<TRIPOS>ATOM
      1 O           1.5248   -0.5223   -0.6404 O.2     1  UNL1        0.0000
      2 C          -0.9267   -0.2077   -0.7684 C.2     1  UNL1        0.0000
      3 N          -1.2606   -0.8309    2.2863 N.am    1  UNL1        0.0000
      4 C          -1.1727   -0.3512    2.3717 C.3     1  UNL1        0.0000
      5 C          -0.8408   -0.8604    2.5901 C.3     1  UNL1        0.0000
      6 C           0.8884   -2.0851    2.0137 C.3     1  UNL1        0.0000
      7 C          -1.7757   -2.1788    0.0003 C.3     1  UNL1        0.0000
      8 C           0.0499    2.1427    0.3191 C.ar    1  UNL1        0.0000
      9 C           1.2455    0.8812    0.7559 C.ar    1  UNL1        0.0000
     10 C          -0.0827   -0.2441   -3.7895 C.ar    1  UNL1        0.0000
     11 N           0.4897    2.3073   -0.3048 N.ar    1  UNL1        0.0000
     12 C           0.5373    2.0470   -2.0842 C.ar    1  UNL1        0.0000
     13 C          -1.5103    0.4207   -3.0954 C.ar    1  UNL1        0.0000
     14 C           0.1664   -2.3044    0.1787 C.ar    1  UNL1        0.0000
     15 C           0.0686   -2.3434    0.1768 C.ar    1  UNL1        0.0000
     16 C           0.1951   -1.3784   -1.9948 C.ar    1  UNL1        0.0000
     17 C           1.7257   -1.1642   -1.8225 C.ar    1  UNL1        0.0000
     18 N           0.5473   -0.5143    1.2998 N.ar    1  UNL1        0.0000
     19 C          -0.1420   -0.6217    0.9248 C.ar    1  UNL1        0.0000
     20 C          -0.2200   -0.5923    0.9514 C.ar    1  UNL1        0.0000
     21 N          -1.9925    0.7889   -1.0808 N.ar    1  UNL1        0.0000
     22 C          -0.2714    0.5714   -2.1098 C.ar    1  UNL1        0.0000
     23 C          -0.8593   -2.6798   -1.4923 C.3     1  UNL1        0.0000
     24 C          -1.3767    1.1601    0.5289 C.3     1  UNL1        0.0000
     25 C           1.6224    0.5392   -1.7351 C.3     1  UNL1        0.0000
     26 C          -1.4192    1.1075    0.5651 C.3     1  UNL1        0.0000
     27 C          -2.1271   -0.4469    0.4579 C.3     1  UNL1        0.0000
     28 C           2.2413   -0.8743    1.4241 C.3     1  UNL1        0.0000
     29 C          -0.1879    1.0169    1.8330 C.3     1  UNL1        0.0000
     30 C          -2.1171   -0.5235    0.4575 C.3     1  UNL1        0.0000
     31 C          -0.1933    0.5873   -1.9960 C.ar    1  UNL1        0.0000
     32 N          -1.2915    2.9292    0.8279 N.ar    1  UNL1        0.0000
     33 N           0.8431    2.1903    1.7146 N.ar    1  UNL1        0.0000
     34 C          -0.0532   -0.3443    0.6964 C.ar    1  UNL1        0.0000
     35 C           0.2499    0.7235   -0.4697 C.ar    1  UNL1        0.0000
     36 H          -1.9669    0.0750    1.8948 H       1  UNL1        0.0000
     37 H           0.4454   -3.4423    1.2083 H       1  UNL1        0.0000
     38 H          -0.7202    2.1759    2.6411 H       1  UNL1        0.0000
     39 H           0.3645   -2.7939   -2.5787 H       1  UNL1        0.0000
     40 H          -2.0699   -1.4065    2.0604 H       1  UNL1        0.0000
     41 H           1.6334   -2.2687    1.2898 H       1  UNL1        0.0000
     42 H          -2.7288   -0.6599   -1.0641 H       1  UNL1        0.0000
     43 H          -0.6341    1.6238   -3.1071 H       1  UNL1        0.0000
     44 H           2.0165    1.4882   -0.6952 H       1  UNL1        0.0000
     45 H           2.4408   -1.3508    0.0552 H       1  UNL1        0.0000
     46 H          -3.1028   -1.3152    1.4786 H       1  UNL1        0.0000
     47 H           0.2419    0.1346   -3.9132 H       1  UNL1        0.0000
     48 H           3.2234   -0.7481   -1.1903 H       1  UNL1        0.0000
     49 H          -0.6585    0.6897    3.2706 H       1  UNL1        0.0000
     50 H          -0.6723   -2.0719    1.5569 H       1  UNL1        0.0000
     51 H          -1.1952   -2.2956   -1.7876 H       1  UNL1        0.0000
     52 H          -0.8920    2.9938   -0.6107 H       1  UNL1        0.0000
     53 H          -0.0930   -2.7986   -1.2541 H       1  UNL1        0.0000
     54 H          -1.0719    1.8130   -1.0196 H       1  UNL1        0.0000
     55 H           0.5560   -2.4787   -1.2217 H       1  UNL1        0.0000
     56 H           2.6521    0.6424    0.8713 H       1  UNL1        0.0000
     57 H           1.1715   -1.7671   -3.0228 H       1  UNL1        0.0000
     58 H          -1.4927   -1.1590   -2.4299 H       1  UNL1        0.0000
     59 H           0.8191    0.1019    2.5025 H       1  UNL1        0.0000
     60 H          -2.5718    1.8527   -0.2036 H       1  UNL1        0.0000
     61 H           1.1371    1.0844   -3.0208 H       1  UNL1        0.0000
     62 H           1.1750    1.1008   -3.0180 H       1  UNL1        0.0000
     63 H           1.7669    2.9027   -0.6891 H       1  UNL1        0.0000
     64 H           3.1488   -0.1110   -0.0654 H       1  UNL1        0.0000
     65 H          -1.3393   -3.8991    0.9013 H       1  UNL1        0.0000
     66 H          -1.6283    1.2542    2.2598 H       1  UNL1        0.0000
     67 H           2.2281    2.3810    1.1258 H       1  UNL1        0.0000
     68 EU          1.2689    2.1366    0.3150 Eu      1  UNL1        0.0000
@<TRIPOS>BOND
     1     1     2    2
     2     2     3   am
     3     3     4    1
     4     3     5    1
     5     5     6    1
     6     6     7    1
     7     2     8    1
     8     8     9   ar
     9     9    10   ar
    10     8    11   ar
    11    11    12   ar
    12    12    13   ar
    13    10    13   ar
    14    13    14   ar
    15    14    15   ar
    16    15    16   ar
    17    16    17   ar
    18    12    17   ar
    19    17    18   ar
    20    18    19   ar
    21    19    20    1
    22    20    21   ar
    23    21    22   ar
    24    22    23    1
    25    23    24    1
    26    23    25    1
    27    23    26    1
    28    26    27    1
    29    27    28    1
    30    28    29    1
    31    28    30    1
    32    22    31   ar
    33    28    31    1
    34    31    32   ar
    35    32    33   ar
    36    20    33   ar
    37    19    34   ar
    38    34    35   ar
    39    16    35   ar
    40     4    36    1
    41     4    37    1
    42     4    38    1
    43     5    39    1
    44     5    40    1
    45     6    41    1
    46     6    42    1
    47     7    43    1
    48     7    44    1
    49     7    45    1
    50     9    46    1
    51    10    47    1
    52    14    48    1
    53    15    49    1
    54    24    50    1
    55    24    51    1
    56    24    52    1
    57    25    53    1
    58    25    54    1
    59    25    55    1
    60    26    56    1
    61    26    57    1
    62    27    58    1
    63    27    59    1
    64    29    60    1
    65    29    61    1
    66    29    62    1
    67    30    63    1
    68    30    64    1
    69    30    65    1
    70    34    66    1
    71    35    67    1
    72    68     1    1
    73    68    33    1
    74    68    18    1
    75    68    11    1
@<TRIPOS>MOLECULE
*****
 68 75 0 0 0
SMALL
GASTEIGER

@<TRIPOS>ATOM
      1 O           1.5248   -0.5223   -0.6404 O.2     1  UNL1        0.0000
      2 C          -0.9267   -0.2077   -0.7684 C.2     1  UNL1        0.0000
      3 N          -1.2606   -0.8309    2.2863 N.am    1  UNL1        0.0000
      4 C          -1.1727   -0.3512    2.3717 C.3     1  UNL1        0.0000
      5 C          -0.8408   -0.8604    2.5901 C.3     1  UNL1        0.0000
      6 C           0.8884   -2.0851    2.0137 C.3     1  UNL1        0.0000
      7 C          -1.7757   -2.1788    0.0003 C.3     1  UNL1        0.0000
      8 C           0.0499    2.1427    0.3191 C.ar    1  UNL1        0.0000
      9 C           1.2455    0.8812    0.7559 C.ar    1  UNL1        0.0000
     10 C          -0.0827   -0.2441   -3.7895 C.ar    1  UNL1        0.0000
     11 N           0.4897    2.3073   -0.3048 N.ar    1  UNL1        0.0000
     12 C           0.5373    2.0470   -2.0842 C.ar    1  UNL1        0.0000
     13 C          -1.5103    0.4207   -3.0954 C.ar    1  UNL1        0.0000
     14 C           0.1664   -2.3044    0.1787 C.ar    1  UNL1        0.0000
     15 C           0.0686   -2.3434    0.1768 C.ar    1  UNL1        0.0000
     16 C           0.1951   -1.3784   -1.9948 C.ar    1  UNL1        0.0000
     17 C           1.7257   -1.1642   -1.8225 C.ar    1  UNL1        0.0000
     18 N           0.5473   -0.5143    1.2998 N.ar    1  UNL1        0.0000
     19 C          -0.1420   -0.6217    0.9248 C.ar    1  UNL1        0.0000
     20 C          -0.2200   -0.5923    0.9514 C.ar    1  UNL1        0.0000
     21 N          -1.9925    0.7889   -1.0808 N.ar    1  UNL1        0.0000
     22 C          -0.2714    0.5714   -2.1098 C.ar    1  UNL1        0.0000
     23 C          -0.8593   -2.6798   -1.4923 C.3     1  UNL1        0.0000
     24 C          -1.3767    1.1601    0.5289 C.3     1  UNL1        0.0000
     25 C           1.6224    0.5392   -1.7351 C.3     1  UNL1        0.0000
     26 C          -1.4192    1.1075    0.5651 C.3     1  UNL1        0.0000
     27 C          -2.1271   -0.4469    0.4579 C.3     1  UNL1        0.0000
     28 C           2.2413   -0.8743    1.4241 C.3     1  UNL1        0.0000
     29 C          -0.1879    1.0169    1.8330 C.3     1  UNL1        0.0000
     30 C          -2.1171   -0.5235    0.4575 C.3     1  UNL1        0.0000
     31 C          -0.1933    0.5873   -1.9960 C.ar    1  UNL1        0.0000
     32 N          -1.2915    2.9292    0.8279 N.ar    1  UNL1        0.0000
     33 N           0.8431    2.1903    1.7146 N.ar    1  UNL1        0.0000
     34 C          -0.0532   -0.3443    0.6964 C.ar    1  UNL1        0.0000
     35 C           0.2499    0.7235   -0.4697 C.ar    1  UNL1        0.0000
     36 H          -1.9669    0.0750    1.8948 H       1  UNL1        0.0000
     37 H           0.4454   -3.4423    1.2083 H       1  UNL1        0.0000
     38 H          -0.7202    2.1759    2.6411 H       1  UNL1        0.0000
     39 H           0.3645   -2.7939   -2.5787 H       1  UNL1        0.0000
     40 H          -2.0699   -1.4065    2.0604 H       1  UNL1        0.0000
     41 H           1.6334   -2.2687    1.2898 H       1  UNL1        0.0000
     42 H          -2.7288   -0.6599   -1.0641 H       1  UNL1        0.0000
     43 H          -0.6341    1.6238   -3.1071 H       1  UNL1        0.0000
     44 H           2.0165    1.4882   -0.6952 H       1  UNL1        0.0000
     45 H           2.4408   -1.3508    0.0552 H       1  UNL1        0.0000
     46 H          -3.1028   -1.3152    1.4786 H       1  UNL1        0.0000
     47 H           0.2419    0.1346   -3.9132 H       1  UNL1        0.0000
     48 H           3.2234   -0.7481   -1.1903 H       1  UNL1        0.0000
     49 H          -0.6585    0.6897    3.2706 H       1  UNL1        0.0000
     50 H          -0.6723   -2.0719    1.5569 H       1  UNL1        0.0000
     51 H          -1.1952   -2.2956   -1.7876 H       1  UNL1        0.0000
     52 H          -0.8920    2.9938   -0.6107 H       1  UNL1        0.0000
     53 H          -0.0930   -2.7986   -1.2541 H       1  UNL1        0.0000
     54 H          -1.0719    1.8130   -1.0196 H       1  UNL1        0.0000
     55 H           0.5560   -2.4787   -1.2217 H       1  UNL1        0.0000
     56 H           2.6521    0.6424    0.8713 H       1  UNL1        0.0000
     57 H           1.1715   -1.7671   -3.0228 H       1  UNL1        0.0000
     58 H          -1.4927   -1.1590   -2.4299 H       1  UNL1        0.0000
     59 H           0.8191    0.1019    2.5025 H       1  UNL1        0.0000
     60 H          -2.5718    1.8527   -0.2036 H       1  UNL1        0.0000
     61 H           1.1371    1.0844   -3.0208 H       1  UNL1        0.0000
     62 H           1.1750    1.1008   -3.0180 H       1  UNL1        0.0000
     63 H           1.7669    2.9027   -0.6891 H       1  UNL1        0.0000
     64 H           3.1488   -0.1110   -0.0654 H       1  UNL1        0.0000
     65 H          -1.3393   -3.8991    0.9013 H       1  UNL1        0.0000
     66 H          -1.6283    1.2542    2.2598 H       1  UNL1        0.0000
     67 H           2.2281    2.3810    1.1258 H       1  UNL1        0.0000
     68 EU          1.2689    2.1366    0.3150 Eu      1  UNL1        0.0000
@<TRIPOS>BOND
     1     1     2    2
     2     2     3   am
     3     3     4    1
     4     3     5    1
     5     5     6    1
     6     6     7    1
     7     2     8    1
     8     8     9   ar
     9     9    10   ar
    10     8    11   ar
    11    11    12   ar
    12    12    13   ar
    13    10    13   ar
    14    13    14   ar
    15    14    15   ar
    16    15    16   ar
    17    16    17   ar
    18    12    17   ar
    19    17    18   ar
    20    18    19   ar
    21    19    20    1
    22    20    21   ar
    23    21    22   ar
    24    22    23    1
    25    23    24    1
    26    23    25    1
    27    23    26    1
    28    26    27    1
    29    27    28    1
    30    28    29    1
    31    28    30    1
    32    22    31   ar
    33    28    31    1
    34    31    32   ar
    35    32    33   ar
    36    20    33   ar
    37    19    34   ar
    38    34    35   ar
    39    16    35   ar
    40     4    36    1
    41     4    37    1
    42     4    38    1
    43     5    39    1
    44     5    40    1
    45     6    41    1
    46     6    42    1
    47     7    43    1
    48     7    44    1
    49     7    45    1
    50     9    46    1
    51    10    47    1
    52    14    48    1
    53    15    49    1
    54    24    50    1
    55    24    51    1
    56    24    52    1
    57    25    53    1
    58    25    54    1
    59    25    55    1
    60    26    56    1
    61    26    57    1
    62    27    58    1
    63    27    59    1
    64    29    60    1
    65    29    61    1
    66    29    62    1
    67    30    63    1
    68    30    64    1
    69    30    65    1
    70    34    66    1
    71    35    67    1
    72    68     1    1
    73    68    33    1
    74    68    18    1
    75    68    11    1
@<TRIPOS>MOLECULE
*****
 68 75 0 0 0
SMALL
GASTEIGER

@<TRIPOS>ATOM
      1 O           1.5248   -0.5223   -0.6404 O.2     1  UNL1        0.0000
      2 C          -0.9267   -0.2077   -0.7684 C.2     1  UNL1        0.0000
      3 N          -1.2606   -0.8309    2.2863 N.am    1  UNL1        0.0000
      4 C          -1.1727   -0.3512    2.3717 C.3     1  UNL1        0.0000
      5 C          -0.8408   -0.8604    2.5901 C.3     1  UNL1        0.0000
      6 C           0.8884   -2.0851    2.0137 C.3     1  UNL1        0.0000
      7 C          -1.7757   -2.1788    0.0003 C.3     1  UNL1        0.0000
      8 C           0.0499    2.1427    0.3191 C.ar    1  UNL1        0.0000
      9 C           1.2455    0.8812    0.7559 C.ar    1  UNL1        0.0000
     10 C          -0.0827   -0.2441   -3.7895 C.ar    1  UNL1        0.0000
     11 N           0.4897    2.3073   -0.3048 N.ar    1  UNL1        0.0000
     12 C           0.5373    2.0470   -2.0842 C.ar    1  UNL1        0.0000
     13 C          -1.5103    0.4207   -3.0954 C.ar    1  UNL1        0.0000
     14 C           0.1664   -2.3044    0.1787 C.ar    1  UNL1        0.0000
     15 C           0.0686   -2.3434    0.1768 C.ar    1  UNL1        0.0000
     16 C           0.1951   -1.3784   -1.9948 C.ar    1  UNL1        0.0000
     17 C           1.7257   -1.1642   -1.8225 C.ar    1  UNL1        0.0000
     18 N           0.5473   -0.5143    1.2998 N.ar    1  UNL1        0.0000
     19 C          -0.1420   -0.6217    0.9248 C.ar    1  UNL1        0.0000
     20 C          -0.2200   -0.5923    0.9514 C.ar    1  UNL1        0.0000
     21 N          -1.9925    0.7889   -1.0808 N.ar    1  UNL1        0.0000
     22 C          -0.2714    0.5714   -2.1098 C.ar    1  UNL1        0.0000
     23 C          -0.8593   -2.6798   -1.4923 C.3     1  UNL1        0.0000
     24 C          -1.3767    1.1601    0.5289 C.3     1  UNL1        0.0000
     25 C           1.6224    0.5392   -1.7351 C.3     1  UNL1        0.0000
     26 C          -1.4192    1.1075    0.5651 C.3     1  UNL1        0.0000
     27 C          -2.1271   -0.4469    0.4579 C.3     1  UNL1        0.0000
     28 C           2.2413   -0.8743    1.4241 C.3     1  UNL1        0.0000
     29 C          -0.1879    1.0169    1.8330 C.3     1  UNL1        0.0000
     30 C          -2.1171   -0.5235    0.4575 C.3     1  UNL1        0.0000
     31 C          -0.1933    0.5873   -1.9960 C.ar    1  UNL1        0.0000
     32 N          -1.2915    2.9292    0.8279 N.ar    1  UNL1        0.0000
     33 N           0.8431    2.1903    1.7146 N.ar    1  UNL1        0.0000
     34 C          -0.0532   -0.3443    0.6964 C.ar    1  UNL1        0.0000
     35 C           0.2499    0.7235   -0.4697 C.ar    1  UNL1        0.0000
     36 H          -1.9669    0.0750    1.8948 H       1  UNL1        0.0000
     37 H           0.4454   -3.4423    1.2083 H       1  UNL1        0.0000
     38 H          -0.7202    2.1759    2.6411 H       1  UNL1        0.0000
     39 H           0.3645   -2.7939   -2.5787 H       1  UNL1        0.0000
     40 H          -2.0699   -1.4065    2.0604 H       1  UNL1        0.0000
     41 H           1.6334   -2.2687    1.2898 H       1  UNL1        0.0000
     42 H          -2.7288   -0.6599   -1.0641 H       1  UNL1        0.0000
     43 H          -0.6341    1.6238   -3.1071 H       1  UNL1        0.0000
     44 H           2.0165    1.4882   -0.6952 H       1  UNL1        0.0000
     45 H           2.4408   -1.3508    0.0552 H       1  UNL1        0.0000
     46 H          -3.1028   -1.3152    1.4786 H       1  UNL1        0.0000
     47 H           0.2419    0.1346   -3.9132 H       1  UNL1        0.0000
     48 H           3.2234   -0.7481   -1.1903 H       1  UNL1        0.0000
     49 H          -0.6585    0.6897    3.2706 H       1  UNL1        0.0000
     50 H          -0.6723   -2.0719    1.5569 H       1  UNL1        0.0000
     51 H          -1.1952   -2.2956   -1.7876 H       1  UNL1        0.0000
     52 H          -0.8920    2.9938   -0.6107 H       1  UNL1        0.0000
     53 H          -0.0930   -2.7986   -1.2541 H       1  UNL1        0.0000
     54 H          -1.0719    1.8130   -1.0196 H       1  UNL1        0.0000
     55 H           0.5560   -2.4787   -1.2217 H       1  UNL1        0.0000
     56 H           2.6521    0.6424    0.8713 H       1  UNL1        0.0000
     57 H           1.1715   -1.7671   -3.0228 H       1  UNL1        0.0000
     58 H          -1.4927   -1.1590   -2.4299 H       1  UNL1        0.0000
     59 H           0.8191    0.1019    2.5025 H       1  UNL1        0.0000
     60 H          -2.5718    1.8527   -0.2036 H       1  UNL1        0.0000
     61 H           1.1371    1.0844   -3.0208 H       1  UNL1        0.0000
     62 H           1.1750    1.1008   -3.0180 H       1  UNL1        0.0000
     63 H           1.7669    2.9027   -0.6891 H       1  UNL1        0.0000
     64 H           3.1488   -0.1110   -0.0654 H       1  UNL1        0.0000
     65 H          -1.3393   -3.8991    0.9013 H       1  UNL1        0.0000
     66 H          -1.6283    1.2542    2.2598 H       1  UNL1        0.0000
     67 H           2.2281    2.3810    1.1258 H       1  UNL1        0.0000
     68 EU          1.2689    2.1366    0.3150 Eu      1  UNL1        0.0000
@<TRIPOS>BOND
     1     1     2    2
     2     2     3   am
     3     3     4    1
     4     3     5    1
     5     5     6    1
     6     6     7    1
     7     2     8    1
     8     8     9   ar
     9     9    10   ar
    10     8    11   ar
    11    11    12   ar
    12    12    13   ar
    13    10    13   ar
    14    13    14   ar
    15    14    15   ar
    16    15    16   ar
    17    16    17   ar
    18    12    17   ar
    19    17    18   ar
    20    18    19   ar
    21    19    20    1
    22    20    21   ar
    23    21    22   ar
    24    22    23    1
    25    23    24    1
    26    23    25    1
    27    23    26    1
    28    26    27    1
    29    27    28    1
    30    28    29    1
    31    28    30    1
    32    22    31   ar
    33    28    31    1
    34    31    32   ar
    35    32    33   ar
    36    20    33   ar
    37    19    34   ar
    38    34    35   ar
    39    16    35   ar
    40     4    36    1
    41     4    37    1
    42     4    38    1
    43     5    39    1
    44     5    40    1
    45     6    41    1
    46     6    42    1
    47     7    43    1
    48     7    44    1
    49     7    45    1
    50     9    46    1
    51    10    47    1
    52    14    48    1
    53    15    49    1
    54    24    50    1
    55    24    51    1
    56    24    52    1
    57    25    53    1
    58    25    54    1
    59    25    55    1
    60    26    56    1
    61    26    57    1
    62    27    58    1
    63    27    59    1
    64    29    60    1
    65    29    61    1
    66    29    62    1
    67    30    63    1
    68    30    64    1
    69    30    65    1
    70    34    66    1
    71    35    67    1
    72    68     1    1
    73    68    33    1
    74    68    18    1
    75    68    11    1
@<TRIPOS>MOLECULE
*****
 68 75 0 0 0
SMALL
GASTEIGER

@<TRIPOS>ATOM
      1 O           1.5248   -0.5223   -0.6404 O.2     1  UNL1        0.0000
      2 C          -0.9267   -0.2077   -0.7684 C.2     1  UNL1        0.0000
      3 N          -1.2606   -0.8309    2.2863 N.am    1  UNL1        0.0000
      4 C          -1.1727   -0.3512    2.3717 C.3     1  UNL1        0.0000
      5 C          -0.8408   -0.8604    2.5901 C.3     1  UNL1        0.0000
      6 C           0.8884   -2.0851    2.0137 C.3     1  UNL1        0.0000
      7 C          -1.7757   -2.1788    0.0003 C.3     1  UNL1        0.0000
      8 C           0.0499    2.1427    0.3191 C.ar    1  UNL1        0.0000
      9 C           1.2455    0.8812    0.7559 C.ar    1  UNL1        0.0000
     10 C          -0.0827   -0.2441   -3.7895 C.ar    1  UNL1        0.0000
     11 N           0.4897    2.3073   -0.3048 N.ar    1  UNL1        0.0000
     12 C           0.5373    2.0470   -2.0842 C.ar    1  UNL1        0.0000
     13 C          -1.5103    0.4207   -3.0954 C.ar    1  UNL1        0.0000
     14 C           0.1664   -2.3044    0.1787 C.ar    1  UNL1        0.0000
     15 C           0.0686   -2.3434    0.1768 C.ar    1  UNL1        0.0000
     16 C           0.1951   -1.3784   -1.9948 C.ar    1  UNL1        0.0000
     17 C           1.7257   -1.1642   -1.8225 C.ar    1  UNL1        0.0000
     18 N           0.5473   -0.5143    1.2998 N.ar    1  UNL1        0.0000
     19 C          -0.1420   -0.6217    0.9248 C.ar    1  UNL1        0.0000
     20 C          -0.2200   -0.5923    0.9514 C.ar    1  UNL1        0.0000
     21 N          -1.9925    0.7889   -1.0808 N.ar    1  UNL1        0.0000
     22 C          -0.2714    0.5714   -2.1098 C.ar    1  UNL1        0.0000
     23 C          -0.8593   -2.6798   -1.4923 C.3     1  UNL1        0.0000
     24 C          -1.3767    1.1601    0.5289 C.3     1  UNL1        0.0000
     25 C           1.6224    0.5392   -1.7351 C.3     1  UNL1        0.0000
     26 C          -1.4192    1.1075    0.5651 C.3     1  UNL1        0.0000
     27 C          -2.1271   -0.4469    0.4579 C.3     1  UNL1        0.0000
     28 C           2.2413   -0.8743    1.4241 C.3     1  UNL1        0.0000
     29 C          -0.1879    1.0169    1.8330 C.3     1  UNL1        0.0000
     30 C          -2.1171   -0.5235    0.4575 C.3     1  UNL1        0.0000
     31 C          -0.1933    0.5873   -1.9960 C.ar    1  UNL1        0.0000
     32 N          -1.2915    2.9292    0.8279 N.ar    1  UNL1        0.0000
     33 N           0.8431    2.1903    1.7146 N.ar    1  UNL1        0.0000
     34 C          -0.0532   -0.3443    0.6964 C.ar    1  UNL1        0.0000
     35 C           0.2499    0.7235   -0.4697 C.ar    1  UNL1        0.0000
     36 H          -1.9669    0.0750    1.8948 H       1  UNL1        0.0000
     37 H           0.4454   -3.4423    1.2083 H       1  UNL1        0.0000
     38 H          -0.7202    2.1759    2.6411 H       1  UNL1        0.0000
     39 H           0.3645   -2.7939   -2.5787 H       1  UNL1        0.0000
     40 H          -2.0699   -1.4065    2.0604 H       1  UNL1        0.0000
     41 H           1.6334   -2.2687    1.2898 H       1  UNL1        0.0000
     42 H          -2.7288   -0.6599   -1.0641 H       1  UNL1        0.0000
     43 H          -0.6341    1.6238   -3.1071 H       1  UNL1        0.0000
     44 H           2.0165    1.4882   -0.6952 H       1  UNL1        0.0000
     45 H           2.4408   -1.3508    0.0552 H       1  UNL1        0.0000
     46 H          -3.1028   -1.3152    1.4786 H       1  UNL1        0.0000
     47 H           0.2419    0.1346   -3.9132 H       1  UNL1        0.0000
     48 H           3.2234   -0.7481   -1.1903 H       1  UNL1        0.0000
     49 H          -0.6585    0.6897    3.2706 H       1  UNL1        0.0000
     50 H          -0.6723   -2.0719    1.5569 H       1  UNL1        0.0000
     51 H          -1.1952   -2.2956   -1.7876 H       1  UNL1        0.0000
     52 H          -0.8920    2.9938   -0.6107 H       1  UNL1        0.0000
     53 H          -0.0930   -2.7986   -1.2541 H       1  UNL1        0.0000
     54 H          -1.0719    1.8130   -1.0196 H       1  UNL1        0.0000
     55 H           0.5560   -2.4787   -1.2217 H       1  UNL1        0.0000
     56 H           2.6521    0.6424    0.8713 H       1  UNL1        0.0000
     57 H           1.1715   -1.7671   -3.0228 H       1  UNL1        0.0000
     58 H          -1.4927   -1.1590   -2.4299 H       1  UNL1        0.0000
     59 H           0.8191    0.1019    2.5025 H       1  UNL1        0.0000
     60 H          -2.5718    1.8527   -0.2036 H       1  UNL1        0.0000
     61 H           1.1371    1.0844   -3.0208 H       1  UNL1        0.0000
     62 H           1.1750    1.1008   -3.0180 H       1  UNL1        0.0000
     63 H           1.7669    2.9027   -0.6891 H       1  UNL1        0.0000
     64 H           3.1488   -0.1110   -0.0654 H       1  UNL1        0.0000
     65 H          -1.3393   -3.8991    0.9013 H       1  UNL1        0.0000
     66 H          -1.6283    1.2542    2.2598 H       1  UNL1        0.0000
     67 H           2.2281    2.3810    1.1258 H       1  UNL1        0.0000
     68 EU          1.2689    2.1366    0.3150 Eu      1  UNL1        0.0000
@<TRIPOS>BOND
     1     1     2    2
     2     2     3   am
     3     3     4    1
     4     3     5    1
     5     5     6    1
     6     6     7    1
     7     2     8    1
     8     8     9   ar
     9     9    10   ar
    10     8    11   ar
    11    11    12   ar
    12    12    13   ar
    13    10    13   ar
    14    13    14   ar
    15    14    15   ar
    16    15    16   ar
    17    16    17   ar
    18    12    17   ar
    19    17    18   ar
    20    18    19   ar
    21    19    20    1
    22    20    21   ar
    23    21    22   ar
    24    22    23    1
    25    23    24    1
    26    23    25    1
    27    23    26    1
    28    26    27    1
    29    27    28    1
    30    28    29    1
    31    28    30    1
    32    22    31   ar
    33    28    31    1
    34    31    32   ar
    35    32    33   ar
    36    20    33   ar
    37    19    34   ar
    38    34    35   ar
    39    16    35   ar
    40     4    36    1
    41     4    37    1
    42     4    38    1
    43     5    39    1
    44     5    40    1
    45     6    41    1
    46     6    42    1
    47     7    43    1
    48     7    44    1
    49     7    45    1
    50     9    46    1
    51    10    47    1
    52    14    48    1
    53    15    49    1
    54    24    50    1
    55    24    51    1
    56    24    52    1
    57    25    53    1
    58    25    54    1
    59    25    55    1
    60    26    56    1
    61    26    57    1
    62    27    58    1
    63    27    59    1
    64    29    60    1
    65    29    61    1
    66    29    62    1
    67    30    63    1
    68    30    64    1
    69    30    65    1
    70    34    66    1
    71    35    67    1
    72    68     1    1
    73    68    33    1
    74    68    18    1
    75    68    11    1
@<TRIPOS>MOLECULE
*****
 68 75 0 0 0
SMALL
GASTEIGER

@<TRIPOS>ATOM
      1 O           1.5248   -0.5223   -0.6404 O.2     1  UNL1        0.0000
      2 C          -0.9267   -0.2077   -0.7684 C.2     1  UNL1        0.0000
      3 N          -1.2606   -0.8309    2.2863 N.am    1  UNL1        0.0000
      4 C          -1.1727   -0.3512    2.3717 C.3     1  UNL1        0.0000
      5 C          -0.8408   -0.8604    2.5901 C.3     1  UNL1        0.0000
      6 C           0.8884   -2.0851    2.0137 C.3     1  UNL1        0.0000
      7 C          -1.7757   -2.1788    0.0003 C.3     1  UNL1        0.0000
      8 C           0.0499    2.1427    0.3191 C.ar    1  UNL1        0.0000
      9 C           1.2455    0.8812    0.7559 C.ar    1  UNL1        0.0000
     10 C          -0.0827   -0.2441   -3.7895 C.ar    1  UNL1        0.0000
     11 N           0.4897    2.3073   -0.3048 N.ar    1  UNL1        0.0000
     12 C           0.5373    2.0470   -2.0842 C.ar    1  UNL1        0.0000
     13 C          -1.5103    0.4207   -3.0954 C.ar    1  UNL1        0.0000
     14 C           0.1664   -2.3044    0.1787 C.ar    1  UNL1        0.0000
     15 C           0.0686   -2.3434    0.1768 C.ar    1  UNL1        0.0000
     16 C           0.1951   -1.3784   -1.9948 C.ar    1  UNL1        0.0000
     17 C           1.7257   -1.1642   -1.8225 C.ar    1  UNL1        0.0000
     18 N           0.5473   -0.5143    1.2998 N.ar    1  UNL1        0.0000
     19 C          -0.1420   -0.6217    0.9248 C.ar    1  UNL1        0.0000
     20 C          -0.2200   -0.5923    0.9514 C.ar    1  UNL1        0.0000
     21 N          -1.9925    0.7889   -1.0808 N.ar    1  UNL1        0.0000
     22 C          -0.2714    0.5714   -2.1098 C.ar    1  UNL1        0.0000
     23 C          -0.8593   -2.6798   -1.4923 C.3     1  UNL1        0.0000
     24 C          -1.3767    1.1601    0.5289 C.3     1  UNL1        0.0000
     25 C           1.6224    0.5392   -1.7351 C.3     1  UNL1        0.0000
     26 C          -1.4192    1.1075    0.5651 C.3     1  UNL1        0.0000
     27 C          -2.1271   -0.4469    0.4579 C.3     1  UNL1        0.0000
     28 C           2.2413   -0.8743    1.4241 C.3     1  UNL1        0.0000
     29 C          -0.1879    1.0169    1.8330 C.3     1  UNL1        0.0000
     30 C          -2.1171   -0.5235    0.4575 C.3     1  UNL1        0.0000
     31 C          -0.1933    0.5873   -1.9960 C.ar    1  UNL1        0.0000
     32 N          -1.2915    2.9292    0.8279 N.ar    1  UNL1        0.0000
     33 N           0.8431    2.1903    1.7146 N.ar    1  UNL1        0.0000
     34 C          -0.0532   -0.3443    0.6964 C.ar    1  UNL1        0.0000
     35 C           0.2499    0.7235   -0.4697 C.ar    1  UNL1        0.0000
     36 H          -1.9669    0.0750    1.8948 H       1  UNL1        0.0000
     37 H           0.4454   -3.4423    1.2083 H       1  UNL1        0.0000
     38 H          -0.7202    2.1759    2.6411 H       1  UNL1        0.0000
     39 H           0.3645   -2.7939   -2.5787 H       1  UNL1        0.0000
     40 H          -2.0699   -1.4065    2.0604 H       1  UNL1        0.0000
     41 H           1.6334   -2.2687    1.2898 H       1  UNL1        0.0000
     42 H          -2.7288   -0.6599   -1.0641 H       1  UNL1        0.0000
     43 H          -0.6341    1.6238   -3.1071 H       1  UNL1        0.0000
     44 H           2.0165    1.4882   -0.6952 H       1  UNL1        0.0000
     45 H           2.4408   -1.3508    0.0552 H       1  UNL1        0.0000
     46 H          -3.1028   -1.3152    1.4786 H       1  UNL1        0.0000
     47 H           0.2419    0.1346   -3.9132 H       1  UNL1        0.0000
     48 H           3.2234   -0.7481   -1.1903 H       1  UNL1        0.0000
     49 H          -0.6585    0.6897    3.2706 H       1  UNL1        0.0000
     50 H          -0.6723   -2.0719    1.5569 H       1  UNL1        0.0000
     51 H          -1.1952   -2.2956   -1.7876 H       1  UNL1        0.0000
     52 H          -0.8920    2.9938   -0.6107 H       1  UNL1        0.0000
     53 H          -0.0930   -2.7986   -1.2541 H       1  UNL1        0.0000
     54 H          -1.0719    1.8130   -1.0196 H       1  UNL1        0.0000
     55 H           0.5560   -2.4787   -1.2217 H       1  UNL1        0.0000
     56 H           2.6521    0.6424    0.8713 H       1  UNL1        0.0000
     57 H           1.1715   -1.7671   -3.0228 H       1  UNL1        0.0000
     58 H          -1.4927   -1.1590   -2.4299 H       1  UNL1        0.0000
     59 H           0.8191    0.1019    2.5025 H       1  UNL1        0.0000
     60 H          -2.5718    1.8527   -0.2036 H       1  UNL1        0.0000
     61 H           1.1371    1.0844   -3.0208 H       1  UNL1        0.0000
     62 H           1.1750    1.1008   -3.0180 H       1  UNL1        0.0000
     63 H           1.7669    2.9027   -0.6891 H       1  UNL1        0.0000
     64 H           3.1488   -0.1110   -0.0654 H       1  UNL1        0.0000
     65 H          -1.3393   -3.8991    0.9013 H       1  UNL1        0.0000
     66 H          -1.6283    1.2542    2.2598 H       1  UNL1        0.0000
     67 H           2.2281    2.3810    1.1258 H       1  UNL1        0.0000
     68 EU          1.2689    2.1366    0.3150 Eu      1  UNL1        0.0000
@<TRIPOS>BOND
     1     1     2    2
     2     2     3   am
     3     3     4    1
     4     3     5    1
     5     5     6    1
     6     6     7    1
     7     2     8    1
     8     8     9   ar
     9     9    10   ar
    10     8    11   ar
    11    11    12   ar
    12    12    13   ar
    13    10    13   ar
    14    13    14   ar
    15    14    15   ar
    16    15    16   ar
    17    16    17   ar
    18    12    17   ar
    19    17    18   ar
    20    18    19   ar
    21    19    20    1
    22    20    21   ar
    23    21    22   ar
    24    22    23    1
    25    23    24    1
    26    23    25    1
    27    23    26    1
    28    26    27    1
    29    27    28    1
    30    28    29    1
    31    28    30    1
    32    22    31   ar
    33    28    31    1
    34    31    32   ar
    35    32    33   ar
    36    20    33   ar
    37    19    34   ar
    38    34    35   ar
    39    16    35   ar
    40     4    36    1
    41     4    37    1
    42     4    38    1
    43     5    39    1
    44     5    40    1
    45     6    41    1
    46     6    42    1
    47     7    43    1
    48     7    44    1
    49     7    45    1
    50     9    46    1
    51    10    47    1
    52    14    48    1
    53    15    49    1
    54    24    50    1
    55    24    51    1
    56    24    52    1
    57    25    53    1
    58    25    54    1
    59    25    55    1
    60    26    56    1
    61    26    57    1
    62    27    58    1
    63    27    59    1
    64    29    60    1
    65    29    61    1
    66    29    62    1
    67    30    63    1
    68    30    64    1
    69    30    65    1
    70    34    66    1
    71    35    67    1
    72    68     1    1
    73    68    33    1
    74    68    18    1
    75    68    11    1
@<TRIPOS>MOLECULE
*****
 68 75 0 0 0
SMALL
GASTEIGER

@<TRIPOS>ATOM
      1 O           1.5248   -0.5223   -0.6404 O.2     1  UNL1        0.0000
      2 C          -0.9267   -0.2077   -0.7684 C.2     1  UNL1        0.0000
      3 N          -1.2606   -0.8309    2.2863 N.am    1  UNL1        0.0000
      4 C          -1.1727   -0.3512    2.3717 C.3     1  UNL1        0.0000
      5 C          -0.8408   -0.8604    2.5901 C.3     1  UNL1        0.0000
      6 C           0.8884   -2.0851    2.0137 C.3     1  UNL1        0.0000
      7 C          -1.7757   -2.1788    0.0003 C.3     1  UNL1        0.0000
      8 C           0.0499    2.1427    0.3191 C.ar    1  UNL1        0.0000
      9 C           1.2455    0.8812    0.7559 C.ar    1  UNL1        0.0000
     10 C          -0.0827   -0.2441   -3.7895 C.ar    1  UNL1        0.0000
     11 N           0.4897    2.3073   -0.3048 N.ar    1  UNL1        0.0000
     12 C           0.5373    2.0470   -2.0842 C.ar    1  UNL1        0.0000
     13 C          -1.5103    0.4207   -3.0954 C.ar    1  UNL1        0.0000
     14 C           0.1664   -2.3044    0.1787 C.ar    1  UNL1        0.0000
     15 C           0.0686   -2.3434    0.1768 C.ar    1  UNL1        0.0000
     16 C           0.1951   -1.3784   -1.9948 C.ar    1  UNL1        0.0000
     17 C           1.7257   -1.1642   -1.8225 C.ar    1  UNL1        0.0000
     18 N           0.5473   -0.5143    1.2998 N.ar    1  UNL1        0.0000
     19 C          -0.1420   -0.6217    0.9248 C.ar    1  UNL1        0.0000
     20 C          -0.2200   -0.5923    0.9514 C.ar    1  UNL1        0.0000
     21 N          -1.9925    0.7889   -1.0808 N.ar    1  UNL1        0.0000
     22 C          -0.2714    0.5714   -2.1098 C.ar    1  UNL1        0.0000
     23 C          -0.8593   -2.6798   -1.4923 C.3     1  UNL1        0.0000
     24 C          -1.3767    1.1601    0.5289 C.3     1  UNL1        0.0000
     25 C           1.6224    0.5392   -1.7351 C.3     1  UNL1        0.0000
     26 C          -1.4192    1.1075    0.5651 C.3     1  UNL1        0.0000
     27 C          -2.1271   -0.4469    0.4579 C.3     1  UNL1        0.0000
     28 C           2.2413   -0.8743    1.4241 C.3     1  UNL1        0.0000
     29 C          -0.1879    1.0169    1.8330 C.3     1  UNL1        0.0000
     30 C          -2.1171   -0.5235    0.4575 C.3     1  UNL1        0.0000
     31 C          -0.1933    0.5873   -1.9960 C.ar    1  UNL1        0.0000
     32 N          -1.2915    2.9292    0.8279 N.ar    1  UNL1        0.0000
     33 N           0.8431    2.1903    1.7146 N.ar    1  UNL1        0.0000
     34 C          -0.0532   -0.3443    0.6964 C.ar    1  UNL1        0.0000
     35 C           0.2499    0.7235   -0.4697 C.ar    1  UNL1        0.0000
     36 H          -1.9669    0.0750    1.8948 H       1  UNL1        0.0000
     37 H           0.4454   -3.4423    1.2083 H       1  UNL1        0.0000
     38 H          -0.7202    2.1759    2.6411 H       1  UNL1        0.0000
     39 H           0.3645   -2.7939   -2.5787 H       1  UNL1        0.0000
     40 H          -2.0699   -1.4065    2.0604 H       1  UNL1        0.0000
     41 H           1.6334   -2.2687    1.2898 H       1  UNL1        0.0000
     42 H          -2.7288   -0.6599   -1.0641 H       1  UNL1        0.0000
     43 H          -0.6341    1.6238   -3.1071 H       1  UNL1        0.0000
     44 H           2.0165    1.4882   -0.6952 H       1  UNL1        0.0000
     45 H           2.4408   -1.3508    0.0552 H       1  UNL1        0.0000
     46 H          -3.1028   -1.3152    1.4786 H       1  UNL1        0.0000
     47 H           0.2419    0.1346   -3.9132 H       1  UNL1        0.0000
     48 H           3.2234   -0.7481   -1.1903 H       1  UNL1        0.0000
     49 H          -0.6585    0.6897    3.2706 H       1  UNL1        0.0000
     50 H          -0.6723   -2.0719    1.5569 H       1  UNL1        0.0000
     51 H          -1.1952   -2.2956   -1.7876 H       1  UNL1        0.0000
     52 H          -0.8920    2.9938   -0.6107 H       1  UNL1        0.0000
     53 H          -0.0930   -2.7986   -1.2541 H       1  UNL1        0.0000
     54 H          -1.0719    1.8130   -1.0196 H       1  UNL1        0.0000
     55 H           0.5560   -2.4787   -1.2217 H       1  UNL1        0.0000
     56 H           2.6521    0.6424    0.8713 H       1  UNL1        0.0000
     57 H           1.1715   -1.7671   -3.0228 H       1  UNL1        0.0000
     58 H          -1.4927   -1.1590   -2.4299 H       1  UNL1        0.0000
     59 H           0.8191    0.1019    2.5025 H       1  UNL1        0.0000
     60 H          -2.5718    1.8527   -0.2036 H       1  UNL1        0.0000
     61 H           1.1371    1.0844   -3.0208 H       1  UNL1        0.0000
     62 H           1.1750    1.1008   -3.0180 H       1  UNL1        0.0000
     63 H           1.7669    2.9027   -0.6891 H       1  UNL1        0.0000
     64 H           3.1488   -0.1110   -0.0654 H       1  UNL1        0.0000
     65 H          -1.3393   -3.8991    0.9013 H       1  UNL1        0.0000
     66 H          -1.6283    1.2542    2.2598 H       1  UNL1        0.0000
     67 H           2.2281    2.3810    1.1258 H       1  UNL1        0.0000
     68 EU          1.2689    2.1366    0.3150 Eu      1  UNL1        0.0000
@<TRIPOS>BOND
     1     1     2    2
     2     2     3   am
     3     3     4    1
     4     3     5    1
     5     5     6    1
     6     6     7    1
     7     2     8    1
     8     8     9   ar
     9     9    10   ar
    10     8    11   ar
    11    11    12   ar
    12    12    13   ar
    13    10    13   ar
    14    13    14   ar
    15    14    15   ar
    16    15    16   ar
    17    16    17   ar
    18    12    17   ar
    19    17    18   ar
    20    18    19   ar
    21    19    20    1
    22    20    21   ar
    23    21    22   ar
    24    22    23    1
    25    23    24    1
    26    23    25    1
    27    23    26    1
    28    26    27    1
    29    27    28    1
    30    28    29    1
    31    28    30    1
    32    22    31   ar
    33    28    31    1
    34    31    32   ar
    35    32    33   ar
    36    20    33   ar
    37    19    34   ar
    38    34    35   ar
    39    16    35   ar
    40     4    36    1
    41     4    37    1
    42     4    38    1
    43     5    39    1
    44     5    40    1
    45     6    41    1
    46     6    42    1
    47     7    43    1
    48     7    44    1
    49     7    45    1
    50     9    46    1
    51    10    47    1
    52    14    48    1
    53    15    49    1
    54    24    50    1
    55    24    51    1
    56    24    52    1
    57    25    53    1
    58    25    54    1
    59    25    55    1
    60    26    56    1
    61    26    57    1
    62    27    58    1
    63    27    59    1
    64    29    60    1
    65    29    61    1
    66    29    62    1
    67    30    63    1
    68    30    64    1
    69    30    65    1
    70    34    66    1
    71    35    67    1
    72    68     1    1
    73    68    33    1
    74    68    18    1
    75    68    11    1
@<TRIPOS>MOLECULE
*****
 68 75 0 0 0
SMALL
GASTEIGER

@<TRIPOS>ATOM
      1 O           1.5248   -0.5223   -0.6404 O.2     1  UNL1        0.0000
      2 C          -0.9267   -0.2077   -0.7684 C.2     1  UNL1        0.0000
      3 N          -1.2606   -0.8309    2.2863 N.am    1  UNL1        0.0000
      4 C          -1.1727   -0.3512    2.3717 C.3     1  UNL1        0.0000
      5 C          -0.8408   -0.8604    2.5901 C.3     1  UNL1        0.0000
      6 C           0.8884   -2.0851    2.0137 C.3     1  UNL1        0.0000
      7 C          -1.7757   -2.1788    0.0003 C.3     1  UNL1        0.0000
      8 C           0.0499    2.1427    0.3191 C.ar    1  UNL1        0.0000
      9 C           1.2455    0.8812    0.7559 C.ar    1  UNL1        0.0000
     10 C          -0.0827   -0.2441   -3.7895 C.ar    1  UNL1        0.0000
     11 N           0.4897    2.3073   -0.3048 N.ar    1  UNL1        0.0000
     12 C           0.5373    2.0470   -2.0842 C.ar    1  UNL1        0.0000
     13 C          -1.5103    0.4207   -3.0954 C.ar    1  UNL1        0.0000
     14 C           0.1664   -2.3044    0.1787 C.ar    1  UNL1        0.0000
     15 C           0.0686   -2.3434    0.1768 C.ar    1  UNL1        0.0000
     16 C           0.1951   -1.3784   -1.9948 C.ar    1  UNL1        0.0000
     17 C           1.7257   -1.1642   -1.8225 C.ar    1  UNL1        0.0000
     18 N           0.5473   -0.5143    1.2998 N.ar    1  UNL1        0.0000
     19 C          -0.1420   -0.6217    0.9248 C.ar    1  UNL1        0.0000
     20 C          -0.2200   -0.5923    0.9514 C.ar    1  UNL1        0.0000
     21 N          -1.9925    0.7889   -1.0808 N.ar    1  UNL1        0.0000
     22 C          -0.2714    0.5714   -2.1098 C.ar    1  UNL1        0.0000
     23 C          -0.8593   -2.6798   -1.4923 C.3     1  UNL1        0.0000
     24 C          -1.3767    1.1601    0.5289 C.3     1  UNL1        0.0000
     25 C           1.6224    0.5392   -1.7351 C.3     1  UNL1        0.0000
     26 C          -1.4192    1.1075    0.5651 C.3     1  UNL1        0.0000
     27 C          -2.1271   -0.4469    0.4579 C.3     1  UNL1        0.0000
     28 C           2.2413   -0.8743    1.4241 C.3     1  UNL1        0.0000
     29 C          -0.1879    1.0169    1.8330 C.3     1  UNL1        0.0000
     30 C          -2.1171   -0.5235    0.4575 C.3     1  UNL1        0.0000
     31 C          -0.1933    0.5873   -1.9960 C.ar    1  UNL1        0.0000
     32 N          -1.2915    2.9292    0.8279 N.ar    1  UNL1        0.0000
     33 N           0.8431    2.1903    1.7146 N.ar    1  UNL1        0.0000
     34 C          -0.0532   -0.3443    0.6964 C.ar    1  UNL1        0.0000
     35 C           0.2499    0.7235   -0.4697 C.ar    1  UNL1        0.0000
     36 H          -1.9669    0.0750    1.8948 H       1  UNL1        0.0000
     37 H           0.4454   -3.4423    1.2083 H       1  UNL1        0.0000
     38 H          -0.7202    2.1759    2.6411 H       1  UNL1        0.0000
     39 H           0.3645   -2.7939   -2.5787 H       1  UNL1        0.0000
     40 H          -2.0699   -1.4065    2.0604 H       1  UNL1        0.0000
     41 H           1.6334   -2.2687    1.2898 H       1  UNL1        0.0000
     42 H          -2.7288   -0.6599   -1.0641 H       1  UNL1        0.0000
     43 H          -0.6341    1.6238   -3.1071 H       1  UNL1        0.0000
     44 H           2.0165    1.4882   -0.6952 H       1  UNL1        0.0000
     45 H           2.4408   -1.3508    0.0552 H       1  UNL1        0.0000
     46 H          -3.1028   -1.3152    1.4786 H       1  UNL1        0.0000
     47 H           0.2419    0.1346   -3.9132 H       1  UNL1        0.0000
     48 H           3.2234   -0.7481   -1.1903 H       1  UNL1        0.0000
     49 H          -0.6585    0.6897    3.2706 H       1  UNL1        0.0000
     50 H          -0.6723   -2.0719    1.5569 H       1  UNL1        0.0000
     51 H          -1.1952   -2.2956   -1.7876 H       1  UNL1        0.0000
     52 H          -0.8920    2.9938   -0.6107 H       1  UNL1        0.0000
     53 H          -0.0930   -2.7986   -1.2541 H       1  UNL1        0.0000
     54 H          -1.0719    1.8130   -1.0196 H       1  UNL1        0.0000
     55 H           0.5560   -2.4787   -1.2217 H       1  UNL1        0.0000
     56 H           2.6521    0.6424    0.8713 H       1  UNL1        0.0000
     57 H           1.1715   -1.7671   -3.0228 H       1  UNL1        0.0000
     58 H          -1.4927   -1.1590   -2.4299 H       1  UNL1        0.0000
     59 H           0.8191    0.1019    2.5025 H       1  UNL1        0.0000
     60 H          -2.5718    1.8527   -0.2036 H       1  UNL1        0.0000
     61 H           1.1371    1.0844   -3.0208 H       1  UNL1        0.0000
     62 H           1.1750    1.1008   -3.0180 H       1  UNL1        0.0000
     63 H           1.7669    2.9027   -0.6891 H       1  UNL1        0.0000
     64 H           3.1488   -0.1110   -0.0654 H       1  UNL1        0.0000
     65 H          -1.3393   -3.8991    0.9013 H       1  UNL1        0.0000
     66 H          -1.6283    1.2542    2.2598 H       1  UNL1        0.0000
     67 H           2.2281    2.3810    1.1258 H       1  UNL1        0.0000
     68 EU          1.2689    2.1366    0.3150 Eu      1  UNL1        0.0000
@<TRIPOS>BOND
     1     1     2    2
     2     2     3   am
     3     3     4    1
     4     3     5    1
     5     5     6    1
     6     6     7    1
     7     2     8    1
     8     8     9   ar
     9     9    10   ar
    10     8    11   ar
    11    11    12   ar
    12    12    13   ar
    13    10    13   ar
    14    13    14   ar
    15    14    15   ar
    16    15    16   ar
    17    16    17   ar
    18    12    17   ar
    19    17    18   ar
    20    18    19   ar
    21    19    20    1
    22    20    21   ar
    23    21    22   ar
    24    22    23    1
    25    23    24    1
    26    23    25    1
    27    23    26    1
    28    26    27    1
    29    27    28    1
    30    28    29    1
    31    28    30    1
    32    22    31   ar
    33    28    31    1
    34    31    32   ar
    35    32    33   ar
    36    20    33   ar
    37    19    34   ar
    38    34    35   ar
    39    16    35   ar
    40     4    36    1
    41     4    37    1
    42     4    38    1
    43     5    39    1
    44     5    40    1
    45     6    41    1
    46     6    42    1
    47     7    43    1
    48     7    44    1
    49     7    45    1
    50     9    46    1
    51    10    47    1
    52    14    48    1
    53    15    49    1
    54    24    50    1
    55    24    51    1
    56    24    52    1
    57    25    53    1
    58    25    54    1
    59    25    55    1
    60    26    56    1
    61    26    57    1
    62    27    58    1
    63    27    59    1
    64    29    60    1
    65    29    61    1
    66    29    62    1
    67    30    63    1
    68    30    64    1
    69    30    65    1
    70    34    66    1
    71    35    67    1
    72    68     1    1
    73    68    33    1
    74    68    18    1
    75    68    11    1
@<TRIPOS>MOLECULE
*****
 68 75 0 0 0
SMALL
GASTEIGER

@<TRIPOS>ATOM
      1 O           1.5248   -0.5223   -0.6404 O.2     1  UNL1        0.0000
      2 C          -0.9267   -0.2077   -0.7684 C.2     1  UNL1        0.0000
      3 N          -1.2606   -0.8309    2.2863 N.am    1  UNL1        0.0000
      4 C          -1.1727   -0.3512    2.3717 C.3     1  UNL1        0.0000
      5 C          -0.8408   -0.8604    2.5901 C.3     1  UNL1        0.0000
      6 C           0.8884   -2.0851    2.0137 C.3     1  UNL1        0.0000
      7 C          -1.7757   -2.1788    0.0003 C.3     1  UNL1        0.0000
      8 C           0.0499    2.1427    0.3191 C.ar    1  UNL1        0.0000
      9 C           1.2455    0.8812    0.7559 C.ar    1  UNL1        0.0000
     10 C          -0.0827   -0.2441   -3.7895 C.ar    1  UNL1        0.0000
     11 N           0.4897    2.3073   -0.3048 N.ar    1  UNL1        0.0000
     12 C           0.5373    2.0470   -2.0842 C.ar    1  UNL1        0.0000
     13 C          -1.5103    0.4207   -3.0954 C.ar    1  UNL1        0.0000
     14 C           0.1664   -2.3044    0.1787 C.ar    1  UNL1        0.0000
     15 C           0.0686   -2.3434    0.1768 C.ar    1  UNL1        0.0000
     16 C           0.1951   -1.3784   -1.9948 C.ar    1  UNL1        0.0000
     17 C           1.7257   -1.1642   -1.8225 C.ar    1  UNL1        0.0000
     18 N           0.5473   -0.5143    1.2998 N.ar    1  UNL1        0.0000
     19 C          -0.1420   -0.6217    0.9248 C.ar    1  UNL1        0.0000
     20 C          -0.2200   -0.5923    0.9514 C.ar    1  UNL1        0.0000
     21 N          -1.9925    0.7889   -1.0808 N.ar    1  UNL1        0.0000
     22 C          -0.2714    0.5714   -2.1098 C.ar    1  UNL1        0.0000
     23 C          -0.8593   -2.6798   -1.4923 C.3     1  UNL1        0.0000
     24 C          -1.3767    1.1601    0.5289 C.3     1  UNL1        0.0000
     25 C           1.6224    0.5392   -1.7351 C.3     1  UNL1        0.0000
     26 C          -1.4192    1.1075    0.5651 C.3     1  UNL1        0.0000
     27 C          -2.1271   -0.4469    0.4579 C.3     1  UNL1        0.0000
     28 C           2.2413   -0.8743    1.4241 C.3     1  UNL1        0.0000
     29 C          -0.1879    1.0169    1.8330 C.3     1  UNL1        0.0000
     30 C          -2.1171   -0.5235    0.4575 C.3     1  UNL1        0.0000
     31 C          -0.1933    0.5873   -1.9960 C.ar    1  UNL1        0.0000
     32 N          -1.2915    2.9292    0.8279 N.ar    1  UNL1        0.0000
     33 N           0.8431    2.1903    1.7146 N.ar    1  UNL1        0.0000
     34 C          -0.0532   -0.3443    0.6964 C.ar    1  UNL1        0.0000
     35 C           0.2499    0.7235   -0.4697 C.ar    1  UNL1        0.0000
     36 H          -1.9669    0.0750    1.8948 H       1  UNL1        0.0000
     37 H           0.4454   -3.4423    1.2083 H       1  UNL1        0.0000
     38 H          -0.7202    2.1759    2.6411 H       1  UNL1        0.0000
     39 H           0.3645   -2.7939   -2.5787 H       1  UNL1        0.0000
     40 H          -2.0699   -1.4065    2.0604 H       1  UNL1        0.0000
     41 H           1.6334   -2.2687    1.2898 H       1  UNL1        0.0000
     42 H          -2.7288   -0.6599   -1.0641 H       1  UNL1        0.0000
     43 H          -0.6341    1.6238   -3.1071 H       1  UNL1        0.0000
     44 H           2.0165    1.4882   -0.6952 H       1  UNL1        0.0000
     45 H           2.4408   -1.3508    0.0552 H       1  UNL1        0.0000
     46 H          -3.1028   -1.3152    1.4786 H       1  UNL1        0.0000
     47 H           0.2419    0.1346   -3.9132 H       1  UNL1        0.0000
     48 H           3.2234   -0.7481   -1.1903 H       1  UNL1        0.0000
     49 H          -0.6585    0.6897    3.2706 H       1  UNL1        0.0000
     50 H          -0.6723   -2.0719    1.5569 H       1  UNL1        0.0000
     51 H          -1.1952   -2.2956   -1.7876 H       1  UNL1        0.0000
     52 H          -0.8920    2.9938   -0.6107 H       1  UNL1        0.0000
     53 H          -0.0930   -2.7986   -1.2541 H       1  UNL1        0.0000
     54 H          -1.0719    1.8130   -1.0196 H       1  UNL1        0.0000
     55 H           0.5560   -2.4787   -1.2217 H       1  UNL1        0.0000
     56 H           2.6521    0.6424    0.8713 H       1  UNL1        0.0000
     57 H           1.1715   -1.7671   -3.0228 H       1  UNL1        0.0000
     58 H          -1.4927   -1.1590   -2.4299 H       1  UNL1        0.0000
     59 H           0.8191    0.1019    2.5025 H       1  UNL1        0.0000
     60 H          -2.5718    1.8527   -0.2036 H       1  UNL1        0.0000
     61 H           1.1371    1.0844   -3.0208 H       1  UNL1        0.0000
     62 H           1.1750    1.1008   -3.0180 H       1  UNL1        0.0000
     63 H           1.7669    2.9027   -0.6891 H       1  UNL1        0.0000
     64 H           3.1488   -0.1110   -0.0654 H       1  UNL1        0.0000
     65 H          -1.3393   -3.8991    0.9013 H       1  UNL1        0.0000
     66 H          -1.6283    1.2542    2.2598 H       1  UNL1        0.0000
     67 H           2.2281    2.3810    1.1258 H       1  UNL1        0.0000
     68 EU          1.2689    2.1366    0.3150 Eu      1  UNL1        0.0000
@<TRIPOS>BOND
     1     1     2    2
     2     2     3   am
     3     3     4    1
     4     3     5    1
     5     5     6    1
     6     6     7    1
     7     2     8    1
     8     8     9   ar
     9     9    10   ar
    10     8    11   ar
    11    11    12   ar
    12    12    13   ar
    13    10    13   ar
    14    13    14   ar
    15    14    15   ar
    16    15    16   ar
    17    16    17   ar
    18    12    17   ar
    19    17    18   ar
    20    18    19   ar
    21    19    20    1
    22    20    21   ar
    23    21    22   ar
    24    22    23    1
    25    23    24    1
    26    23    25    1
    27    23    26    1
    28    26    27    1
    29    27    28    1
    30    28    29    1
    31    28    30    1
    32    22    31   ar
    33    28    31    1
    34    31    32   ar
    35    32    33   ar
    36    20    33   ar
    37    19    34   ar
    38    34    35   ar
    39    16    35   ar
    40     4    36    1
    41     4    37    1
    42     4    38    1
    43     5    39    1
    44     5    40    1
    45     6    41    1
    46     6    42    1
    47     7    43    1
    48     7    44    1
    49     7    45    1
    50     9    46    1
    51    10    47    1
    52    14    48    1
    53    15    49    1
    54    24    50    1
    55    24    51    1
    56    24    52    1
    57    25    53    1
    58    25    54    1
    59    25    55    1
    60    26    56    1
    61    26    57    1
    62    27    58    1
    63    27    59    1
    64    29    60    1
    65    29    61    1
    66    29    62    1
    67    30    63    1
    68    30    64    1
    69    30    65    1
    70    34    66    1
    71    35    67    1
    72    68     1    1
    73    68    33    1
    74    68    18    1
    75    68    11    1
@<TRIPOS>MOLECULE
*****
 68 75 0 0 0
SMALL
GASTEIGER

@<TRIPOS>ATOM
      1 O           1.5248   -0.5223   -0.6404 O.2     1  UNL1        0.0000
      2 C          -0.9267   -0.2077   -0.7684 C.2     1  UNL1        0.0000
      3 N          -1.2606   -0.8309    2.2863 N.am    1  UNL1        0.0000
      4 C          -1.1727   -0.3512    2.3717 C.3     1  UNL1        0.0000
      5 C          -0.8408   -0.8604    2.5901 C.3     1  UNL1        0.0000
      6 C           0.8884   -2.0851    2.0137 C.3     1  UNL1        0.0000
      7 C          -1.7757   -2.1788    0.0003 C.3     1  UNL1        0.0000
      8 C           0.0499    2.1427    0.3191 C.ar    1  UNL1        0.0000
      9 C           1.2455    0.8812    0.7559 C.ar    1  UNL1        0.0000
     10 C          -0.0827   -0.2441   -3.7895 C.ar    1  UNL1        0.0000
     11 N           0.4897    2.3073   -0.3048 N.ar    1  UNL1        0.0000
     12 C           0.5373    2.0470   -2.0842 C.ar    1  UNL1        0.0000
     13 C          -1.5103    0.4207   -3.0954 C.ar    1  UNL1        0.0000
     14 C           0.1664   -2.3044    0.1787 C.ar    1  UNL1        0.0000
     15 C           0.0686   -2.3434    0.1768 C.ar    1  UNL1        0.0000
     16 C           0.1951   -1.3784   -1.9948 C.ar    1  UNL1        0.0000
     17 C           1.7257   -1.1642   -1.8225 C.ar    1  UNL1        0.0000
     18 N           0.5473   -0.5143    1.2998 N.ar    1  UNL1        0.0000
     19 C          -0.1420   -0.6217    0.9248 C.ar    1  UNL1        0.0000
     20 C          -0.2200   -0.5923    0.9514 C.ar    1  UNL1        0.0000
     21 N          -1.9925    0.7889   -1.0808 N.ar    1  UNL1        0.0000
     22 C          -0.2714    0.5714   -2.1098 C.ar    1  UNL1        0.0000
     23 C          -0.8593   -2.6798   -1.4923 C.3     1  UNL1        0.0000
     24 C          -1.3767    1.1601    0.5289 C.3     1  UNL1        0.0000
     25 C           1.6224    0.5392   -1.7351 C.3     1  UNL1        0.0000
     26 C          -1.4192    1.1075    0.5651 C.3     1  UNL1        0.0000
     27 C          -2.1271   -0.4469    0.4579 C.3     1  UNL1        0.0000
     28 C           2.2413   -0.8743    1.4241 C.3     1  UNL1        0.0000
     29 C          -0.1879    1.0169    1.8330 C.3     1  UNL1        0.0000
     30 C          -2.1171   -0.5235    0.4575 C.3     1  UNL1        0.0000
     31 C          -0.1933    0.5873   -1.9960 C.ar    1  UNL1        0.0000
     32 N          -1.2915    2.9292    0.8279 N.ar    1  UNL1        0.0000
     33 N           0.8431    2.1903    1.7146 N.ar    1  UNL1        0.0000
     34 C          -0.0532   -0.3443    0.6964 C.ar    1  UNL1        0.0000
     35 C           0.2499    0.7235   -0.4697 C.ar    1  UNL1        0.0000
     36 H          -1.9669    0.0750    1.8948 H       1  UNL1        0.0000
     37 H           0.4454   -3.4423    1.2083 H       1  UNL1        0.0000
     38 H          -0.7202    2.1759    2.6411 H       1  UNL1        0.0000
     39 H           0.3645   -2.7939   -2.5787 H       1  UNL1        0.0000
     40 H          -2.0699   -1.4065    2.0604 H       1  UNL1        0.0000
     41 H           1.6334   -2.2687    1.2898 H       1  UNL1        0.0000
     42 H          -2.7288   -0.6599   -1.0641 H       1  UNL1        0.0000
     43 H          -0.6341    1.6238   -3.1071 H       1  UNL1        0.0000
     44 H           2.0165    1.4882   -0.6952 H       1  UNL1        0.0000
     45 H           2.4408   -1.3508    0.0552 H       1  UNL1        0.0000
     46 H          -3.1028   -1.3152    1.4786 H       1  UNL1        0.0000
     47 H           0.2419    0.1346   -3.9132 H       1  UNL1        0.0000
     48 H           3.2234   -0.7481   -1.1903 H       1  UNL1        0.0000
     49 H          -0.6585    0.6897    3.2706 H       1  UNL1        0.0000
     50 H          -0.6723   -2.0719    1.5569 H       1  UNL1        0.0000
     51 H          -1.1952   -2.2956   -1.7876 H       1  UNL1        0.0000
     52 H          -0.8920    2.9938   -0.6107 H       1  UNL1        0.0000
     53 H          -0.0930   -2.7986   -1.2541 H       1  UNL1        0.0000
     54 H          -1.0719    1.8130   -1.0196 H       1  UNL1        0.0000
     55 H           0.5560   -2.4787   -1.2217 H       1  UNL1        0.0000
     56 H           2.6521    0.6424    0.8713 H       1  UNL1        0.0000
     57 H           1.1715   -1.7671   -3.0228 H       1  UNL1        0.0000
     58 H          -1.4927   -1.1590   -2.4299 H       1  UNL1        0.0000
     59 H           0.8191    0.1019    2.5025 H       1  UNL1        0.0000
     60 H          -2.5718    1.8527   -0.2036 H       1  UNL1        0.0000
     61 H           1.1371    1.0844   -3.0208 H       1  UNL1        0.0000
     62 H           1.1750    1.1008   -3.0180 H       1  UNL1        0.0000
     63 H           1.7669    2.9027   -0.6891 H       1  UNL1        0.0000
     64 H           3.1488   -0.1110   -0.0654 H       1  UNL1        0.0000
     65 H          -1.3393   -3.8991    0.9013 H       1  UNL1        0.0000
     66 H          -1.6283    1.2542    2.2598 H       1  UNL1        0.0000
     67 H           2.2281    2.3810    1.1258 H       1  UNL1        0.0000
     68 EU          1.2689    2.1366    0.3150 Eu      1  UNL1        0.0000
@<TRIPOS>BOND
     1     1     2    2
     2     2     3   am
     3     3     4    1
     4     3     5    1
     5     5     6    1
     6     6     7    1
     7     2     8    1
     8     8     9   ar
     9     9    10   ar
    10     8    11   ar
    11    11    12   ar
    12    12    13   ar
    13    10    13   ar
    14    13    14   ar
    15    14    15   ar
    16    15    16   ar
    17    16    17   ar
    18    12    17   ar
    19    17    18   ar
    20    18    19   ar
    21    19    20    1
    22    20    21   ar
    23    21    22   ar
    24    22    23    1
    25    23    24    1
    26    23    25    1
    27    23    26    1
    28    26    27    1
    29    27    28    1
    30    28    29    1
    31    28    30    1
    32    22    31   ar
    33    28    31    1
    34    31    32   ar
    35    32    33   ar
    36    20    33   ar
    37    19    34   ar
    38    34    35   ar
    39    16    35   ar
    40     4    36    1
    41     4    37    1
    42     4    38    1
    43     5    39    1
    44     5    40    1
    45     6    41    1
    46     6    42    1
    47     7    43    1
    48     7    44    1
    49     7    45    1
    50     9    46    1
    51    10    47    1
    52    14    48    1
    53    15    49    1
    54    24    50    1
    55    24    51    1
    56    24    52    1
    57    25    53    1
    58    25    54    1
    59    25    55    1
    60    26    56    1
    61    26    57    1
    62    27    58    1
    63    27    59    1
    64    29    60    1
    65    29    61    1
    66    29    62    1
    67    30    63    1
    68    30    64    1
    69    30    65    1
    70    34    66    1
    71    35    67    1
    72    68     1    1
    73    68    33    1
    74    68    18    1
    75    68    11    1
@<TRIPOS>MOLECULE
*****
 68 75 0 0 0
SMALL
GASTEIGER

@<TRIPOS>ATOM
      1 O           1.5248   -0.5223   -0.6404 O.2     1  UNL1        0.0000
      2 C          -0.9267   -0.2077   -0.7684 C.2     1  UNL1        0.0000
      3 N          -1.2606   -0.8309    2.2863 N.am    1  UNL1        0.0000
      4 C          -1.1727   -0.3512    2.3717 C.3     1  UNL1        0.0000
      5 C          -0.8408   -0.8604    2.5901 C.3     1  UNL1        0.0000
      6 C           0.8884   -2.0851    2.0137 C.3     1  UNL1        0.0000
      7 C          -1.7757   -2.1788    0.0003 C.3     1  UNL1        0.0000
      8 C           0.0499    2.1427    0.3191 C.ar    1  UNL1        0.0000
      9 C           1.2455    0.8812    0.7559 C.ar    1  UNL1        0.0000
     10 C          -0.0827   -0.2441   -3.7895 C.ar    1  UNL1        0.0000
     11 N           0.4897    2.3073   -0.3048 N.ar    1  UNL1        0.0000
     12 C           0.5373    2.0470   -2.0842 C.ar    1  UNL1        0.0000
     13 C          -1.5103    0.4207   -3.0954 C.ar    1  UNL1        0.0000
     14 C           0.1664   -2.3044    0.1787 C.ar    1  UNL1        0.0000
     15 C           0.0686   -2.3434    0.1768 C.ar    1  UNL1        0.0000
     16 C           0.1951   -1.3784   -1.9948 C.ar    1  UNL1        0.0000
     17 C           1.7257   -1.1642   -1.8225 C.ar    1  UNL1        0.0000
     18 N           0.5473   -0.5143    1.2998 N.ar    1  UNL1        0.0000
     19 C          -0.1420   -0.6217    0.9248 C.ar    1  UNL1        0.0000
     20 C          -0.2200   -0.5923    0.9514 C.ar    1  UNL1        0.0000
     21 N          -1.9925    0.7889   -1.0808 N.ar    1  UNL1        0.0000
     22 C          -0.2714    0.5714   -2.1098 C.ar    1  UNL1        0.0000
     23 C          -0.8593   -2.6798   -1.4923 C.3     1  UNL1        0.0000
     24 C          -1.3767    1.1601    0.5289 C.3     1  UNL1        0.0000
     25 C           1.6224    0.5392   -1.7351 C.3     1  UNL1        0.0000
     26 C          -1.4192    1.1075    0.5651 C.3     1  UNL1        0.0000
     27 C          -2.1271   -0.4469    0.4579 C.3     1  UNL1        0.0000
     28 C           2.2413   -0.8743    1.4241 C.3     1  UNL1        0.0000
     29 C          -0.1879    1.0169    1.8330 C.3     1  UNL1        0.0000
     30 C          -2.1171   -0.5235    0.4575 C.3     1  UNL1        0.0000
     31 C          -0.1933    0.5873   -1.9960 C.ar    1  UNL1        0.0000
     32 N          -1.2915    2.9292    0.8279 N.ar    1  UNL1        0.0000
     33 N           0.8431    2.1903    1.7146 N.ar    1  UNL1        0.0000
     34 C          -0.0532   -0.3443    0.6964 C.ar    1  UNL1        0.0000
     35 C           0.2499    0.7235   -0.4697 C.ar    1  UNL1        0.0000
     36 H          -1.9669    0.0750    1.8948 H       1  UNL1        0.0000
     37 H           0.4454   -3.4423    1.2083 H       1  UNL1        0.0000
     38 H          -0.7202    2.1759    2.6411 H       1  UNL1        0.0000
     39 H           0.3645   -2.7939   -2.5787 H       1  UNL1        0.0000
     40 H          -2.0699   -1.4065    2.0604 H       1  UNL1        0.0000
     41 H           1.6334   -2.2687    1.2898 H       1  UNL1        0.0000
     42 H          -2.7288   -0.6599   -1.0641 H       1  UNL1        0.0000
     43 H          -0.6341    1.6238   -3.1071 H       1  UNL1        0.0000
     44 H           2.0165    1.4882   -0.6952 H       1  UNL1        0.0000
     45 H           2.4408   -1.3508    0.0552 H       1  UNL1        0.0000
     46 H          -3.1028   -1.3152    1.4786 H       1  UNL1        0.0000
     47 H           0.2419    0.1346   -3.9132 H       1  UNL1        0.0000
     48 H           3.2234   -0.7481   -1.1903 H       1  UNL1        0.0000
     49 H          -0.6585    0.6897    3.2706 H       1  UNL1        0.0000
     50 H          -0.6723   -2.0719    1.5569 H       1  UNL1        0.0000
     51 H          -1.1952   -2.2956   -1.7876 H       1  UNL1        0.0000
     52 H          -0.8920    2.9938   -0.6107 H       1  UNL1        0.0000
     53 H          -0.0930   -2.7986   -1.2541 H       1  UNL1        0.0000
     54 H          -1.0719    1.8130   -1.0196 H       1  UNL1        0.0000
     55 H           0.5560   -2.4787   -1.2217 H       1  UNL1        0.0000
     56 H           2.6521    0.6424    0.8713 H       1  UNL1        0.0000
     57 H           1.1715   -1.7671   -3.0228 H       1  UNL1        0.0000
     58 H          -1.4927   -1.1590   -2.4299 H       1  UNL1        0.0000
     59 H           0.8191    0.1019    2.5025 H       1  UNL1        0.0000
     60 H          -2.5718    1.8527   -0.2036 H       1  UNL1        0.0000
     61 H           1.1371    1.0844   -3.0208 H       1  UNL1        0.0000
     62 H           1.1750    1.1008   -3.0180 H       1  UNL1        0.0000
     63 H           1.7669    2.9027   -0.6891 H       1  UNL1        0.0000
     64 H           3.1488   -0.1110   -0.0654 H       1  UNL1        0.0000
     65 H          -1.3393   -3.8991    0.9013 H       1  UNL1        0.0000
     66 H          -1.6283    1.2542    2.2598 H       1  UNL1        0.0000
     67 H           2.2281    2.3810    1.1258 H       1  UNL1        0.0000
     68 EU          1.2689    2.1366    0.3150 Eu      1  UNL1        0.0000
@<TRIPOS>BOND
     1     1     2    2
     2     2     3   am
     3     3     4    1
     4     3     5    1
     5     5     6    1
     6     6     7    1
     7     2     8    1
     8     8     9   ar
     9     9    10   ar
    10     8    11   ar
    11    11    12   ar
    12    12    13   ar
    13    10    13   ar
    14    13    14   ar
    15    14    15   ar
    16    15    16   ar
    17    16    17   ar
    18    12    17   ar
    19    17    18   ar
    20    18    19   ar
    21    19    20    1
    22    20    21   ar
    23    21    22   ar
    24    22    23    1
    25    23    24    1
    26    23    25    1
    27    23    26    1
    28    26    27    1
    29    27    28    1
    30    28    29    1
    31    28    30    1
    32    22    31   ar
    33    28    31    1
    34    31    32   ar
    35    32    33   ar
    36    20    33   ar
    37    19    34   ar
    38    34    35   ar
    39    16    35   ar
    40     4    36    1
    41     4    37    1
    42     4    38    1
    43     5    39    1
    44     5    40    1
    45     6    41    1
    46     6    42    1
    47     7    43    1
    48     7    44    1
    49     7    45    1
    50     9    46    1
    51    10    47    1
    52    14    48    1
    53    15    49    1
    54    24    50    1
    55    24    51    1
    56    24    52    1
    57    25    53    1
    58    25    54    1
    59    25    55    1
    60    26    56    1
    61    26    57    1
    62    27    58    1
    63    27    59    1
    64    29    60    1
    65    29    61    1
    66    29    62    1
    67    30    63    1
    68    30    64    1
    69    30    65    1
    70    34    66    1
    71    35    67    1
    72    68     1    1
    73    68    33    1
    74    68    18    1
    75    68    11    1
@<TRIPOS>MOLECULE
*****
 68 75 0 0 0
SMALL
GASTEIGER

@<TRIPOS>ATOM
      1 O           1.5248   -0.5223   -0.6404 O.2     1  UNL1        0.0000
      2 C          -0.9267   -0.2077   -0.7684 C.2     1  UNL1        0.0000
      3 N          -1.2606   -0.8309    2.2863 N.am    1  UNL1        0.0000
      4 C          -1.1727   -0.3512    2.3717 C.3     1  UNL1        0.0000
      5 C          -0.8408   -0.8604    2.5901 C.3     1  UNL1        0.0000
      6 C           0.8884   -2.0851    2.0137 C.3     1  UNL1        0.0000
      7 C          -1.7757   -2.1788    0.0003 C.3     1  UNL1        0.0000
      8 C           0.0499    2.1427    0.3191 C.ar    1  UNL1        0.0000
      9 C           1.2455    0.8812    0.7559 C.ar    1  UNL1        0.0000
     10 C          -0.0827   -0.2441   -3.7895 C.ar    1  UNL1        0.0000
     11 N           0.4897    2.3073   -0.3048 N.ar    1  UNL1        0.0000
     12 C           0.5373    2.0470   -2.0842 C.ar    1  UNL1        0.0000
     13 C          -1.5103    0.4207   -3.0954 C.ar    1  UNL1        0.0000
     14 C           0.1664   -2.3044    0.1787 C.ar    1  UNL1        0.0000
     15 C           0.0686   -2.3434    0.1768 C.ar    1  UNL1        0.0000
     16 C           0.1951   -1.3784   -1.9948 C.ar    1  UNL1        0.0000
     17 C           1.7257   -1.1642   -1.8225 C.ar    1  UNL1        0.0000
     18 N           0.5473   -0.5143    1.2998 N.ar    1  UNL1        0.0000
     19 C          -0.1420   -0.6217    0.9248 C.ar    1  UNL1        0.0000
     20 C          -0.2200   -0.5923    0.9514 C.ar    1  UNL1        0.0000
     21 N          -1.9925    0.7889   -1.0808 N.ar    1  UNL1        0.0000
     22 C          -0.2714    0.5714   -2.1098 C.ar    1  UNL1        0.0000
     23 C          -0.8593   -2.6798   -1.4923 C.3     1  UNL1        0.0000
     24 C          -1.3767    1.1601    0.5289 C.3     1  UNL1        0.0000
     25 C           1.6224    0.5392   -1.7351 C.3     1  UNL1        0.0000
     26 C          -1.4192    1.1075    0.5651 C.3     1  UNL1        0.0000
     27 C          -2.1271   -0.4469    0.4579 C.3     1  UNL1        0.0000
     28 C           2.2413   -0.8743    1.4241 C.3     1  UNL1        0.0000
     29 C          -0.1879    1.0169    1.8330 C.3     1  UNL1        0.0000
     30 C          -2.1171   -0.5235    0.4575 C.3     1  UNL1        0.0000
     31 C          -0.1933    0.5873   -1.9960 C.ar    1  UNL1        0.0000
     32 N          -1.2915    2.9292    0.8279 N.ar    1  UNL1        0.0000
     33 N           0.8431    2.1903    1.7146 N.ar    1  UNL1        0.0000
     34 C          -0.0532   -0.3443    0.6964 C.ar    1  UNL1        0.0000
     35 C           0.2499    0.7235   -0.4697 C.ar    1  UNL1        0.0000
     36 H          -1.9669    0.0750    1.8948 H       1  UNL1        0.0000
     37 H           0.4454   -3.4423    1.2083 H       1  UNL1        0.0000
     38 H          -0.7202    2.1759    2.6411 H       1  UNL1        0.0000
     39 H           0.3645   -2.7939   -2.5787 H       1  UNL1        0.0000
     40 H          -2.0699   -1.4065    2.0604 H       1  UNL1        0.0000
     41 H           1.6334   -2.2687    1.2898 H       1  UNL1        0.0000
     42 H          -2.7288   -0.6599   -1.0641 H       1  UNL1        0.0000
     43 H          -0.6341    1.6238   -3.1071 H       1  UNL1        0.0000
     44 H           2.0165    1.4882   -0.6952 H       1  UNL1        0.0000
     45 H           2.4408   -1.3508    0.0552 H       1  UNL1        0.0000
     46 H          -3.1028   -1.3152    1.4786 H       1  UNL1        0.0000
     47 H           0.2419    0.1346   -3.9132 H       1  UNL1        0.0000
     48 H           3.2234   -0.7481   -1.1903 H       1  UNL1        0.0000
     49 H          -0.6585    0.6897    3.2706 H       1  UNL1        0.0000
     50 H          -0.6723   -2.0719    1.5569 H       1  UNL1        0.0000
     51 H          -1.1952   -2.2956   -1.7876 H       1  UNL1        0.0000
     52 H          -0.8920    2.9938   -0.6107 H       1  UNL1        0.0000
     53 H          -0.0930   -2.7986   -1.2541 H       1  UNL1        0.0000
     54 H          -1.0719    1.8130   -1.0196 H       1  UNL1        0.0000
     55 H           0.5560   -2.4787   -1.2217 H       1  UNL1        0.0000
     56 H           2.6521    0.6424    0.8713 H       1  UNL1        0.0000
     57 H           1.1715   -1.7671   -3.0228 H       1  UNL1        0.0000
     58 H          -1.4927   -1.1590   -2.4299 H       1  UNL1        0.0000
     59 H           0.8191    0.1019    2.5025 H       1  UNL1        0.0000
     60 H          -2.5718    1.8527   -0.2036 H       1  UNL1        0.0000
     61 H           1.1371    1.0844   -3.0208 H       1  UNL1        0.0000
     62 H           1.1750    1.1008   -3.0180 H       1  UNL1        0.0000
     63 H           1.7669    2.9027   -0.6891 H       1  UNL1        0.0000
     64 H           3.1488   -0.1110   -0.0654 H       1  UNL1        0.0000
     65 H          -1.3393   -3.8991    0.9013 H       1  UNL1        0.0000
     66 H          -1.6283    1.2542    2.2598 H       1  UNL1        0.0000
     67 H           2.2281    2.3810    1.1258 H       1  UNL1        0.0000
     68 EU          1.2689    2.1366    0.3150 Eu      1  UNL1        0.0000
@<TRIPOS>BOND
     1     1     2    2
     2     2     3   am
     3     3     4    1
     4     3     5    1
     5     5     6    1
     6     6     7    1
     7     2     8    1
     8     8     9   ar
     9     9    10   ar
    10     8    11   ar
    11    11    12   ar
    12    12    13   ar
    13    10    13   ar
    14    13    14   ar
    15    14    15   ar
    16    15    16   ar
    17    16    17   ar
    18    12    17   ar
    19    17    18   ar
    20    18    19   ar
    21    19    20    1
    22    20    21   ar
    23    21    22   ar
    24    22    23    1
    25    23    24    1
    26    23    25    1
    27    23    26    1
    28    26    27    1
    29    27    28    1
    30    28    29    1
    31    28    30    1
    32    22    31   ar
    33    28    31    1
    34    31    32   ar
    35    32    33   ar
    36    20    33   ar
    37    19    34   ar
    38    34    35   ar
    39    16    35   ar
    40     4    36    1
    41     4    37    1
    42     4    38    1
    43     5    39    1
    44     5    40    1
    45     6    41    1
    46     6    42    1
    47     7    43    1
    48     7    44    1
    49     7    45    1
    50     9    46    1
    51    10    47    1
    52    14    48    1
    53    15    49    1
    54    24    50    1
    55    24    51    1
    56    24    52    1
    57    25    53    1
    58    25    54    1
    59    25    55    1
    60    26    56    1
    61    26    57    1
    62    27    58    1
    63    27    59    1
    64    29    60    1
    65    29    61    1
    66    29    62    1
    67    30    63    1
    68    30    64    1
    69    30    65    1
    70    34    66    1
    71    35    67    1
    72    68     1    1
    73    68    33    1
    74    68    18    1
    75    68    11    1
@<TRIPOS>MOLECULE
*****
 68 75 0 0 0
SMALL
GASTEIGER

@<TRIPOS>ATOM
      1 O           1.5248   -0.5223   -0.6404 O.2     1  UNL1        0.0000
      2 C          -0.9267   -0.2077   -0.7684 C.2     1  UNL1        0.0000
      3 N          -1.2606   -0.8309    2.2863 N.am    1  UNL1        0.0000
      4 C          -1.1727   -0.3512    2.3717 C.3     1  UNL1        0.0000
      5 C          -0.8408   -0.8604    2.5901 C.3     1  UNL1        0.0000
      6 C           0.8884   -2.0851    2.0137 C.3     1  UNL1        0.0000
      7 C          -1.7757   -2.1788    0.0003 C.3     1  UNL1        0.0000
      8 C           0.0499    2.1427    0.3191 C.ar    1  UNL1        0.0000
      9 C           1.2455    0.8812    0.7559 C.ar    1  UNL1        0.0000
     10 C          -0.0827   -0.2441   -3.7895 C.ar    1  UNL1        0.0000
     11 N           0.4897    2.3073   -0.3048 N.ar    1  UNL1        0.0000
     12 C           0.5373    2.0470   -2.0842 C.ar    1  UNL1        0.0000
     13 C          -1.5103    0.4207   -3.0954 C.ar    1  UNL1        0.0000
     14 C           0.1664   -2.3044    0.1787 C.ar    1  UNL1        0.0000
     15 C           0.0686   -2.3434    0.1768 C.ar    1  UNL1        0.0000
     16 C           0.1951   -1.3784   -1.9948 C.ar    1  UNL1        0.0000
     17 C           1.7257   -1.1642   -1.8225 C.ar    1  UNL1        0.0000
     18 N           0.5473   -0.5143    1.2998 N.ar    1  UNL1        0.0000
     19 C          -0.1420   -0.6217    0.9248 C.ar    1  UNL1        0.0000
     20 C          -0.2200   -0.5923    0.9514 C.ar    1  UNL1        0.0000
     21 N          -1.9925    0.7889   -1.0808 N.ar    1  UNL1        0.0000
     22 C          -0.2714    0.5714   -2.1098 C.ar    1  UNL1        0.0000
     23 C          -0.8593   -2.6798   -1.4923 C.3     1  UNL1        0.0000
     24 C          -1.3767    1.1601    0.5289 C.3     1  UNL1        0.0000
     25 C           1.6224    0.5392   -1.7351 C.3     1  UNL1        0.0000
     26 C          -1.4192    1.1075    0.5651 C.3     1  UNL1        0.0000
     27 C          -2.1271   -0.4469    0.4579 C.3     1  UNL1        0.0000
     28 C           2.2413   -0.8743    1.4241 C.3     1  UNL1        0.0000
     29 C          -0.1879    1.0169    1.8330 C.3     1  UNL1        0.0000
     30 C          -2.1171   -0.5235    0.4575 C.3     1  UNL1        0.0000
     31 C          -0.1933    0.5873   -1.9960 C.ar    1  UNL1        0.0000
     32 N          -1.2915    2.9292    0.8279 N.ar    1  UNL1        0.0000
     33 N           0.8431    2.1903    1.7146 N.ar    1  UNL1        0.0000
     34 C          -0.0532   -0.3443    0.6964 C.ar    1  UNL1        0.0000
     35 C           0.2499    0.7235   -0.4697 C.ar    1  UNL1        0.0000
     36 H          -1.9669    0.0750    1.8948 H       1  UNL1        0.0000
     37 H           0.4454   -3.4423    1.2083 H       1  UNL1        0.0000
     38 H          -0.7202    2.1759    2.6411 H       1  UNL1        0.0000
     39 H           0.3645   -2.7939   -2.5787 H       1  UNL1        0.0000
     40 H          -2.0699   -1.4065    2.0604 H       1  UNL1        0.0000
     41 H           1.6334   -2.2687    1.2898 H       1  UNL1        0.0000
     42 H          -2.7288   -0.6599   -1.0641 H       1  UNL1        0.0000
     43 H          -0.6341    1.6238   -3.1071 H       1  UNL1        0.0000
     44 H           2.0165    1.4882   -0.6952 H       1  UNL1        0.0000
     45 H           2.4408   -1.3508    0.0552 H       1  UNL1        0.0000
     46 H          -3.1028   -1.3152    1.4786 H       1  UNL1        0.0000
     47 H           0.2419    0.1346   -3.9132 H       1  UNL1        0.0000
     48 H           3.2234   -0.7481   -1.1903 H       1  UNL1        0.0000
     49 H          -0.6585    0.6897    3.2706 H       1  UNL1        0.0000
     50 H          -0.6723   -2.0719    1.5569 H       1  UNL1        0.0000
     51 H          -1.1952   -2.2956   -1.7876 H       1  UNL1        0.0000
     52 H          -0.8920    2.9938   -0.6107 H       1  UNL1        0.0000
     53 H          -0.0930   -2.7986   -1.2541 H       1  UNL1        0.0000
     54 H          -1.0719    1.8130   -1.0196 H       1  UNL1        0.0000
     55 H           0.5560   -2.4787   -1.2217 H       1  UNL1        0.0000
     56 H           2.6521    0.6424    0.8713 H       1  UNL1        0.0000
     57 H           1.1715   -1.7671   -3.0228 H       1  UNL1        0.0000
     58 H          -1.4927   -1.1590   -2.4299 H       1  UNL1        0.0000
     59 H           0.8191    0.1019    2.5025 H       1  UNL1        0.0000
     60 H          -2.5718    1.8527   -0.2036 H       1  UNL1        0.0000
     61 H           1.1371    1.0844   -3.0208 H       1  UNL1        0.0000
     62 H           1.1750    1.1008   -3.0180 H       1  UNL1        0.0000
     63 H           1.7669    2.9027   -0.6891 H       1  UNL1        0.0000
     64 H           3.1488   -0.1110   -0.0654 H       1  UNL1        0.0000
     65 H          -1.3393   -3.8991    0.9013 H       1  UNL1        0.0000
     66 H          -1.6283    1.2542    2.2598 H       1  UNL1        0.0000
     67 H           2.2281    2.3810    1.1258 H       1  UNL1        0.0000
     68 EU          1.2689    2.1366    0.3150 Eu      1  UNL1        0.0000
@<TRIPOS>BOND
     1     1     2    2
     2     2     3   am
     3     3     4    1
     4     3     5    1
     5     5     6    1
     6     6     7    1
     7     2     8    1
     8     8     9   ar
     9     9    10   ar
    10     8    11   ar
    11    11    12   ar
    12    12    13   ar
    13    10    13   ar
    14    13    14   ar
    15    14    15   ar
    16    15    16   ar
    17    16    17   ar
    18    12    17   ar
    19    17    18   ar
    20    18    19   ar
    21    19    20    1
    22    20    21   ar
    23    21    22   ar
    24    22    23    1
    25    23    24    1
    26    23    25    1
    27    23    26    1
    28    26    27    1
    29    27    28    1
    30    28    29    1
    31    28    30    1
    32    22    31   ar
    33    28    31    1
    34    31    32   ar
    35    32    33   ar
    36    20    33   ar
    37    19    34   ar
    38    34    35   ar
    39    16    35   ar
    40     4    36    1
    41     4    37    1
    42     4    38    1
    43     5    39    1
    44     5    40    1
    45     6    41    1
    46     6    42    1
    47     7    43    1
    48     7    44    1
    49     7    45    1
    50     9    46    1
    51    10    47    1
    52    14    48    1
    53    15    49    1
    54    24    50    1
    55    24    51    1
    56    24    52    1
    57    25    53    1
    58    25    54    1
    59    25    55    1
    60    26    56    1
    61    26    57    1
    62    27    58    1
    63    27    59    1
    64    29    60    1
    65    29    61    1
    66    29    62    1
    67    30    63    1
    68    30    64    1
    69    30    65    1
    70    34    66    1
    71    35    67    1
    72    68     1    1
    73    68    33    1
    74    68    18    1
    75    68    11    1
@<TRIPOS>MOLECULE
*****
 68 75 0 0 0
SMALL
GASTEIGER

@<TRIPOS>ATOM
      1 O           1.5248   -0.5223   -0.6404 O.2     1  UNL1        0.0000
      2 C          -0.9267   -0.2077   -0.7684 C.2     1  UNL1        0.0000
      3 N          -1.2606   -0.8309    2.2863 N.am    1  UNL1        0.0000
      4 C          -1.1727   -0.3512    2.3717 C.3     1  UNL1        0.0000
      5 C          -0.8408   -0.8604    2.5901 C.3     1  UNL1        0.0000
      6 C           0.8884   -2.0851    2.0137 C.3     1  UNL1        0.0000
      7 C          -1.7757   -2.1788    0.0003 C.3     1  UNL1        0.0000
      8 C           0.0499    2.1427    0.3191 C.ar    1  UNL1        0.0000
      9 C           1.2455    0.8812    0.7559 C.ar    1  UNL1        0.0000
     10 C          -0.0827   -0.2441   -3.7895 C.ar    1  UNL1        0.0000
     11 N           0.4897    2.3073   -0.3048 N.ar    1  UNL1        0.0000
     12 C           0.5373    2.0470   -2.0842 C.ar    1  UNL1        0.0000
     13 C          -1.5103    0.4207   -3.0954 C.ar    1  UNL1        0.0000
     14 C           0.1664   -2.3044    0.1787 C.ar    1  UNL1        0.0000
     15 C           0.0686   -2.3434    0.1768 C.ar    1  UNL1        0.0000
     16 C           0.1951   -1.3784   -1.9948 C.ar    1  UNL1        0.0000
     17 C           1.7257   -1.1642   -1.8225 C.ar    1  UNL1        0.0000
     18 N           0.5473   -0.5143    1.2998 N.ar    1  UNL1        0.0000
     19 C          -0.1420   -0.6217    0.9248 C.ar    1  UNL1        0.0000
     20 C          -0.2200   -0.5923    0.9514 C.ar    1  UNL1        0.0000
     21 N          -1.9925    0.7889   -1.0808 N.ar    1  UNL1        0.0000
     22 C          -0.2714    0.5714   -2.1098 C.ar    1  UNL1        0.0000
     23 C          -0.8593   -2.6798   -1.4923 C.3     1  UNL1        0.0000
     24 C          -1.3767    1.1601    0.5289 C.3     1  UNL1        0.0000
     25 C           1.6224    0.5392   -1.7351 C.3     1  UNL1        0.0000
     26 C          -1.4192    1.1075    0.5651 C.3     1  UNL1        0.0000
     27 C          -2.1271   -0.4469    0.4579 C.3     1  UNL1        0.0000
     28 C           2.2413   -0.8743    1.4241 C.3     1  UNL1        0.0000
     29 C          -0.1879    1.0169    1.8330 C.3     1  UNL1        0.0000
     30 C          -2.1171   -0.5235    0.4575 C.3     1  UNL1        0.0000
     31 C          -0.1933    0.5873   -1.9960 C.ar    1  UNL1        0.0000
     32 N          -1.2915    2.9292    0.8279 N.ar    1  UNL1        0.0000
     33 N           0.8431    2.1903    1.7146 N.ar    1  UNL1        0.0000
     34 C          -0.0532   -0.3443    0.6964 C.ar    1  UNL1        0.0000
     35 C           0.2499    0.7235   -0.4697 C.ar    1  UNL1        0.0000
     36 H          -1.9669    0.0750    1.8948 H       1  UNL1        0.0000
     37 H           0.4454   -3.4423    1.2083 H       1  UNL1        0.0000
     38 H          -0.7202    2.1759    2.6411 H       1  UNL1        0.0000
     39 H           0.3645   -2.7939   -2.5787 H       1  UNL1        0.0000
     40 H          -2.0699   -1.4065    2.0604 H       1  UNL1        0.0000
     41 H           1.6334   -2.2687    1.2898 H       1  UNL1        0.0000
     42 H          -2.7288   -0.6599   -1.0641 H       1  UNL1        0.0000
     43 H          -0.6341    1.6238   -3.1071 H       1  UNL1        0.0000
     44 H           2.0165    1.4882   -0.6952 H       1  UNL1        0.0000
     45 H           2.4408   -1.3508    0.0552 H       1  UNL1        0.0000
     46 H          -3.1028   -1.3152    1.4786 H       1  UNL1        0.0000
     47 H           0.2419    0.1346   -3.9132 H       1  UNL1        0.0000
     48 H           3.2234   -0.7481   -1.1903 H       1  UNL1        0.0000
     49 H          -0.6585    0.6897    3.2706 H       1  UNL1        0.0000
     50 H          -0.6723   -2.0719    1.5569 H       1  UNL1        0.0000
     51 H          -1.1952   -2.2956   -1.7876 H       1  UNL1        0.0000
     52 H          -0.8920    2.9938   -0.6107 H       1  UNL1        0.0000
     53 H          -0.0930   -2.7986   -1.2541 H       1  UNL1        0.0000
     54 H          -1.0719    1.8130   -1.0196 H       1  UNL1        0.0000
     55 H           0.5560   -2.4787   -1.2217 H       1  UNL1        0.0000
     56 H           2.6521    0.6424    0.8713 H       1  UNL1        0.0000
     57 H           1.1715   -1.7671   -3.0228 H       1  UNL1        0.0000
     58 H          -1.4927   -1.1590   -2.4299 H       1  UNL1        0.0000
     59 H           0.8191    0.1019    2.5025 H       1  UNL1        0.0000
     60 H          -2.5718    1.8527   -0.2036 H       1  UNL1        0.0000
     61 H           1.1371    1.0844   -3.0208 H       1  UNL1        0.0000
     62 H           1.1750    1.1008   -3.0180 H       1  UNL1        0.0000
     63 H           1.7669    2.9027   -0.6891 H       1  UNL1        0.0000
     64 H           3.1488   -0.1110   -0.0654 H       1  UNL1        0.0000
     65 H          -1.3393   -3.8991    0.9013 H       1  UNL1        0.0000
     66 H          -1.6283    1.2542    2.2598 H       1  UNL1        0.0000
     67 H           2.2281    2.3810    1.1258 H       1  UNL1        0.0000
     68 EU          1.2689    2.1366    0.3150 Eu      1  UNL1        0.0000
@<TRIPOS>BOND
     1     1     2    2
     2     2     3   am
     3     3     4    1
     4     3     5    1
     5     5     6    1
     6     6     7    1
     7     2     8    1
     8     8     9   ar
     9     9    10   ar
    10     8    11   ar
    11    11    12   ar
    12    12    13   ar
    13    10    13   ar
    14    13    14   ar
    15    14    15   ar
    16    15    16   ar
    17    16    17   ar
    18    12    17   ar
    19    17    18   ar
    20    18    19   ar
    21    19    20    1
    22    20    21   ar
    23    21    22   ar
    24    22    23    1
    25    23    24    1
    26    23    25    1
    27    23    26    1
    28    26    27    1
    29    27    28    1
    30    28    29    1
    31    28    30    1
    32    22    31   ar
    33    28    31    1
    34    31    32   ar
    35    32    33   ar
    36    20    33   ar
    37    19    34   ar
    38    34    35   ar
    39    16    35   ar
    40     4    36    1
    41     4    37    1
    42     4    38    1
    43     5    39    1
    44     5    40    1
    45     6    41    1
    46     6    42    1
    47     7    43    1
    48     7    44    1
    49     7    45    1
    50     9    46    1
    51    10    47    1
    52    14    48    1
    53    15    49    1
    54    24    50    1
    55    24    51    1
    56    24    52    1
    57    25    53    1
    58    25    54    1
    59    25    55    1
    60    26    56    1
    61    26    57    1
    62    27    58    1
    63    27    59    1
    64    29    60    1
    65    29    61    1
    66    29    62    1
    67    30    63    1
    68    30    64    1
    69    30    65    1
    70    34    66    1
    71    35    67    1
    72    68     1    1
    73    68    33    1
    74    68    18    1
    75    68    11    1
@<TRIPOS>MOLECULE
*****
 68 75 0 0 0
SMALL
GASTEIGER

@<TRIPOS>ATOM
      1 O           1.5248   -0.5223   -0.6404 O.2     1  UNL1        0.0000
      2 C          -0.9267   -0.2077   -0.7684 C.2     1  UNL1        0.0000
      3 N          -1.2606   -0.8309    2.2863 N.am    1  UNL1        0.0000
      4 C          -1.1727   -0.3512    2.3717 C.3     1  UNL1        0.0000
      5 C          -0.8408   -0.8604    2.5901 C.3     1  UNL1        0.0000
      6 C           0.8884   -2.0851    2.0137 C.3     1  UNL1        0.0000
      7 C          -1.7757   -2.1788    0.0003 C.3     1  UNL1        0.0000
      8 C           0.0499    2.1427    0.3191 C.ar    1  UNL1        0.0000
      9 C           1.2455    0.8812    0.7559 C.ar    1  UNL1        0.0000
     10 C          -0.0827   -0.2441   -3.7895 C.ar    1  UNL1        0.0000
     11 N           0.4897    2.3073   -0.3048 N.ar    1  UNL1        0.0000
     12 C           0.5373    2.0470   -2.0842 C.ar    1  UNL1        0.0000
     13 C          -1.5103    0.4207   -3.0954 C.ar    1  UNL1        0.0000
     14 C           0.1664   -2.3044    0.1787 C.ar    1  UNL1        0.0000
     15 C           0.0686   -2.3434    0.1768 C.ar    1  UNL1        0.0000
     16 C           0.1951   -1.3784   -1.9948 C.ar    1  UNL1        0.0000
     17 C           1.7257   -1.1642   -1.8225 C.ar    1  UNL1        0.0000
     18 N           0.5473   -0.5143    1.2998 N.ar    1  UNL1        0.0000
     19 C          -0.1420   -0.6217    0.9248 C.ar    1  UNL1        0.0000
     20 C          -0.2200   -0.5923    0.9514 C.ar    1  UNL1        0.0000
     21 N          -1.9925    0.7889   -1.0808 N.ar    1  UNL1        0.0000
     22 C          -0.2714    0.5714   -2.1098 C.ar    1  UNL1        0.0000
     23 C          -0.8593   -2.6798   -1.4923 C.3     1  UNL1        0.0000
     24 C          -1.3767    1.1601    0.5289 C.3     1  UNL1        0.0000
     25 C           1.6224    0.5392   -1.7351 C.3     1  UNL1        0.0000
     26 C          -1.4192    1.1075    0.5651 C.3     1  UNL1        0.0000
     27 C          -2.1271   -0.4469    0.4579 C.3     1  UNL1        0.0000
     28 C           2.2413   -0.8743    1.4241 C.3     1  UNL1        0.0000
     29 C          -0.1879    1.0169    1.8330 C.3     1  UNL1        0.0000
     30 C          -2.1171   -0.5235    0.4575 C.3     1  UNL1        0.0000
     31 C          -0.1933    0.5873   -1.9960 C.ar    1  UNL1        0.0000
     32 N          -1.2915    2.9292    0.8279 N.ar    1  UNL1        0.0000
     33 N           0.8431    2.1903    1.7146 N.ar    1  UNL1        0.0000
     34 C          -0.0532   -0.3443    0.6964 C.ar    1  UNL1        0.0000
     35 C           0.2499    0.7235   -0.4697 C.ar    1  UNL1        0.0000
     36 H          -1.9669    0.0750    1.8948 H       1  UNL1        0.0000
     37 H           0.4454   -3.4423    1.2083 H       1  UNL1        0.0000
     38 H          -0.7202    2.1759    2.6411 H       1  UNL1        0.0000
     39 H           0.3645   -2.7939   -2.5787 H       1  UNL1        0.0000
     40 H          -2.0699   -1.4065    2.0604 H       1  UNL1        0.0000
     41 H           1.6334   -2.2687    1.2898 H       1  UNL1        0.0000
     42 H          -2.7288   -0.6599   -1.0641 H       1  UNL1        0.0000
     43 H          -0.6341    1.6238   -3.1071 H       1  UNL1        0.0000
     44 H           2.0165    1.4882   -0.6952 H       1  UNL1        0.0000
     45 H           2.4408   -1.3508    0.0552 H       1  UNL1        0.0000
     46 H          -3.1028   -1.3152    1.4786 H       1  UNL1        0.0000
     47 H           0.2419    0.1346   -3.9132 H       1  UNL1        0.0000
     48 H           3.2234   -0.7481   -1.1903 H       1  UNL1        0.0000
     49 H          -0.6585    0.6897    3.2706 H       1  UNL1        0.0000
     50 H          -0.6723   -2.0719    1.5569 H       1  UNL1        0.0000
     51 H          -1.1952   -2.2956   -1.7876 H       1  UNL1        0.0000
     52 H          -0.8920    2.9938   -0.6107 H       1  UNL1        0.0000
     53 H          -0.0930   -2.7986   -1.2541 H       1  UNL1        0.0000
     54 H          -1.0719    1.8130   -1.0196 H       1  UNL1        0.0000
     55 H           0.5560   -2.4787   -1.2217 H       1  UNL1        0.0000
     56 H           2.6521    0.6424    0.8713 H       1  UNL1        0.0000
     57 H           1.1715   -1.7671   -3.0228 H       1  UNL1        0.0000
     58 H          -1.4927   -1.1590   -2.4299 H       1  UNL1        0.0000
     59 H           0.8191    0.1019    2.5025 H       1  UNL1        0.0000
     60 H          -2.5718    1.8527   -0.2036 H       1  UNL1        0.0000
     61 H           1.1371    1.0844   -3.0208 H       1  UNL1        0.0000
     62 H           1.1750    1.1008   -3.0180 H       1  UNL1        0.0000
     63 H           1.7669    2.9027   -0.6891 H       1  UNL1        0.0000
     64 H           3.1488   -0.1110   -0.0654 H       1  UNL1        0.0000
     65 H          -1.3393   -3.8991    0.9013 H       1  UNL1        0.0000
     66 H          -1.6283    1.2542    2.2598 H       1  UNL1        0.0000
     67 H           2.2281    2.3810    1.1258 H       1  UNL1        0.0000
     68 EU          1.2689    2.1366    0.3150 Eu      1  UNL1        0.0000
@<TRIPOS>BOND
     1     1     2    2
     2     2     3   am
     3     3     4    1
     4     3     5    1
     5     5     6    1
     6     6     7    1
     7     2     8    1
     8     8     9   ar
     9     9    10   ar
    10     8    11   ar
    11    11    12   ar
    12    12    13   ar
    13    10    13   ar
    14    13    14   ar
    15    14    15   ar
    16    15    16   ar
    17    16    17   ar
    18    12    17   ar
    19    17    18   ar
    20    18    19   ar
    21    19    20    1
    22    20    21   ar
    23    21    22   ar
    24    22    23    1
    25    23    24    1
    26    23    25    1
    27    23    26    1
    28    26    27    1
    29    27    28    1
    30    28    29    1
    31    28    30    1
    32    22    31   ar
    33    28    31    1
    34    31    32   ar
    35    32    33   ar
    36    20    33   ar
    37    19    34   ar
    38    34    35   ar
    39    16    35   ar
    40     4    36    1
    41     4    37    1
    42     4    38    1
    43     5    39    1
    44     5    40    1
    45     6    41    1
    46     6    42    1
    47     7    43    1
    48     7    44    1
    49     7    45    1
    50     9    46    1
    51    10    47    1
    52    14    48    1
    53    15    49    1
    54    24    50    1
    55    24    51    1
    56    24    52    1
    57    25    53    1
    58    25    54    1
    59    25    55    1
    60    26    56    1
    61    26    57    1
    62    27    58    1
    63    27    59    1
    64    29    60    1
    65    29    61    1
    66    29    62    1
    67    30    63    1
    68    30    64    1
    69    30    65    1
    70    34    66    1
    71    35    67    1
    72    68     1    1
    73    68    33    1
    74    68    18    1
    75    68    11    1
@<TRIPOS>MOLECULE
*****
 68 75 0 0 0
SMALL
GASTEIGER

@<TRIPOS>ATOM
      1 O           1.5248   -0.5223   -0.6404 O.2     1  UNL1        0.0000
      2 C          -0.9267   -0.2077   -0.7684 C.2     1  UNL1        0.0000
      3 N          -1.2606   -0.8309    2.2863 N.am    1  UNL1        0.0000
      4 C          -1.1727   -0.3512    2.3717 C.3     1  UNL1        0.0000
      5 C          -0.8408   -0.8604    2.5901 C.3     1  UNL1        0.0000
      6 C           0.8884   -2.0851    2.0137 C.3     1  UNL1        0.0000
      7 C          -1.7757   -2.1788    0.0003 C.3     1  UNL1        0.0000
      8 C           0.0499    2.1427    0.3191 C.ar    1  UNL1        0.0000
      9 C           1.2455    0.8812    0.7559 C.ar    1  UNL1        0.0000
     10 C          -0.0827   -0.2441   -3.7895 C.ar    1  UNL1        0.0000
     11 N           0.4897    2.3073   -0.3048 N.ar    1  UNL1        0.0000
     12 C           0.5373    2.0470   -2.0842 C.ar    1  UNL1        0.0000
     13 C          -1.5103    0.4207   -3.0954 C.ar    1  UNL1        0.0000
     14 C           0.1664   -2.3044    0.1787 C.ar    1  UNL1        0.0000
     15 C           0.0686   -2.3434    0.1768 C.ar    1  UNL1        0.0000
     16 C           0.1951   -1.3784   -1.9948 C.ar    1  UNL1        0.0000
     17 C           1.7257   -1.1642   -1.8225 C.ar    1  UNL1        0.0000
     18 N           0.5473   -0.5143    1.2998 N.ar    1  UNL1        0.0000
     19 C          -0.1420   -0.6217    0.9248 C.ar    1  UNL1        0.0000
     20 C          -0.2200   -0.5923    0.9514 C.ar    1  UNL1        0.0000
     21 N          -1.9925    0.7889   -1.0808 N.ar    1  UNL1        0.0000
     22 C          -0.2714    0.5714   -2.1098 C.ar    1  UNL1        0.0000
     23 C          -0.8593   -2.6798   -1.4923 C.3     1  UNL1        0.0000
     24 C          -1.3767    1.1601    0.5289 C.3     1  UNL1        0.0000
     25 C           1.6224    0.5392   -1.7351 C.3     1  UNL1        0.0000
     26 C          -1.4192    1.1075    0.5651 C.3     1  UNL1        0.0000
     27 C          -2.1271   -0.4469    0.4579 C.3     1  UNL1        0.0000
     28 C           2.2413   -0.8743    1.4241 C.3     1  UNL1        0.0000
     29 C          -0.1879    1.0169    1.8330 C.3     1  UNL1        0.0000
     30 C          -2.1171   -0.5235    0.4575 C.3     1  UNL1        0.0000
     31 C          -0.1933    0.5873   -1.9960 C.ar    1  UNL1        0.0000
     32 N          -1.2915    2.9292    0.8279 N.ar    1  UNL1        0.0000
     33 N           0.8431    2.1903    1.7146 N.ar    1  UNL1        0.0000
     34 C          -0.0532   -0.3443    0.6964 C.ar    1  UNL1        0.0000
     35 C           0.2499    0.7235   -0.4697 C.ar    1  UNL1        0.0000
     36 H          -1.9669    0.0750    1.8948 H       1  UNL1        0.0000
     37 H           0.4454   -3.4423    1.2083 H       1  UNL1        0.0000
     38 H          -0.7202    2.1759    2.6411 H       1  UNL1        0.0000
     39 H           0.3645   -2.7939   -2.5787 H       1  UNL1        0.0000
     40 H          -2.0699   -1.4065    2.0604 H       1  UNL1        0.0000
     41 H           1.6334   -2.2687    1.2898 H       1  UNL1        0.0000
     42 H          -2.7288   -0.6599   -1.0641 H       1  UNL1        0.0000
     43 H          -0.6341    1.6238   -3.1071 H       1  UNL1        0.0000
     44 H           2.0165    1.4882   -0.6952 H       1  UNL1        0.0000
     45 H           2.4408   -1.3508    0.0552 H       1  UNL1        0.0000
     46 H          -3.1028   -1.3152    1.4786 H       1  UNL1        0.0000
     47 H           0.2419    0.1346   -3.9132 H       1  UNL1        0.0000
     48 H           3.2234   -0.7481   -1.1903 H       1  UNL1        0.0000
     49 H          -0.6585    0.6897    3.2706 H       1  UNL1        0.0000
     50 H          -0.6723   -2.0719    1.5569 H       1  UNL1        0.0000
     51 H          -1.1952   -2.2956   -1.7876 H       1  UNL1        0.0000
     52 H          -0.8920    2.9938   -0.6107 H       1  UNL1        0.0000
     53 H          -0.0930   -2.7986   -1.2541 H       1  UNL1        0.0000
     54 H          -1.0719    1.8130   -1.0196 H       1  UNL1        0.0000
     55 H           0.5560   -2.4787   -1.2217 H       1  UNL1        0.0000
     56 H           2.6521    0.6424    0.8713 H       1  UNL1        0.0000
     57 H           1.1715   -1.7671   -3.0228 H       1  UNL1        0.0000
     58 H          -1.4927   -1.1590   -2.4299 H       1  UNL1        0.0000
     59 H           0.8191    0.1019    2.5025 H       1  UNL1        0.0000
     60 H          -2.5718    1.8527   -0.2036 H       1  UNL1        0.0000
     61 H           1.1371    1.0844   -3.0208 H       1  UNL1        0.0000
     62 H           1.1750    1.1008   -3.0180 H       1  UNL1        0.0000
     63 H           1.7669    2.9027   -0.6891 H       1  UNL1        0.0000
     64 H           3.1488   -0.1110   -0.0654 H       1  UNL1        0.0000
     65 H          -1.3393   -3.8991    0.9013 H       1  UNL1        0.0000
     66 H          -1.6283    1.2542    2.2598 H       1  UNL1        0.0000
     67 H           2.2281    2.3810    1.1258 H       1  UNL1        0.0000
     68 EU          1.2689    2.1366    0.3150 Eu      1  UNL1        0.0000
@<TRIPOS>BOND
     1     1     2    2
     2     2     3   am
     3     3     4    1
     4     3     5    1
     5     5     6    1
     6     6     7    1
     7     2     8    1
     8     8     9   ar
     9     9    10   ar
    10     8    11   ar
    11    11    12   ar
    12    12    13   ar
    13    10    13   ar
    14    13    14   ar
    15    14    15   ar
    16    15    16   ar
    17    16    17   ar
    18    12    17   ar
    19    17    18   ar
    20    18    19   ar
    21    19    20    1
    22    20    21   ar
    23    21    22   ar
    24    22    23    1
    25    23    24    1
    26    23    25    1
    27    23    26    1
    28    26    27    1
    29    27    28    1
    30    28    29    1
    31    28    30    1
    32    22    31   ar
    33    28    31    1
    34    31    32   ar
    35    32    33   ar
    36    20    33   ar
    37    19    34   ar
    38    34    35   ar
    39    16    35   ar
    40     4    36    1
    41     4    37    1
    42     4    38    1
    43     5    39    1
    44     5    40    1
    45     6    41    1
    46     6    42    1
    47     7    43    1
    48     7    44    1
    49     7    45    1
    50     9    46    1
    51    10    47    1
    52    14    48    1
    53    15    49    1
    54    24    50    1
    55    24    51    1
    56    24    52    1
    57    25    53    1
    58    25    54    1
    59    25    55    1
    60    26    56    1
    61    26    57    1
    62    27    58    1
    63    27    59    1
    64    29    60    1
    65    29    61    1
    66    29    62    1
    67    30    63    1
    68    30    64    1
    69    30    65    1
    70    34    66    1
    71    35    67    1
    72    68     1    1
    73    68    33    1
    74    68    18    1
    75    68    11    1
@<TRIPOS>MOLECULE
*****
 68 75 0 0 0
SMALL
GASTEIGER

@<TRIPOS>ATOM
      1 O           1.5248   -0.5223   -0.6404 O.2     1  UNL1        0.0000
      2 C          -0.9267   -0.2077   -0.7684 C.2     1  UNL1        0.0000
      3 N          -1.2606   -0.8309    2.2863 N.am    1  UNL1        0.0000
      4 C          -1.1727   -0.3512    2.3717 C.3     1  UNL1        0.0000
      5 C          -0.8408   -0.8604    2.5901 C.3     1  UNL1        0.0000
      6 C           0.8884   -2.0851    2.0137 C.3     1  UNL1        0.0000
      7 C          -1.7757   -2.1788    0.0003 C.3     1  UNL1        0.0000
      8 C           0.0499    2.1427    0.3191 C.ar    1  UNL1        0.0000
      9 C           1.2455    0.8812    0.7559 C.ar    1  UNL1        0.0000
     10 C          -0.0827   -0.2441   -3.7895 C.ar    1  UNL1        0.0000
     11 N           0.4897    2.3073   -0.3048 N.ar    1  UNL1        0.0000
     12 C           0.5373    2.0470   -2.0842 C.ar    1  UNL1        0.0000
     13 C          -1.5103    0.4207   -3.0954 C.ar    1  UNL1        0.0000
     14 C           0.1664   -2.3044    0.1787 C.ar    1  UNL1        0.0000
     15 C           0.0686   -2.3434    0.1768 C.ar    1  UNL1        0.0000
     16 C           0.1951   -1.3784   -1.9948 C.ar    1  UNL1        0.0000
     17 C           1.7257   -1.1642   -1.8225 C.ar    1  UNL1        0.0000
     18 N           0.5473   -0.5143    1.2998 N.ar    1  UNL1        0.0000
     19 C          -0.1420   -0.6217    0.9248 C.ar    1  UNL1        0.0000
     20 C          -0.2200   -0.5923    0.9514 C.ar    1  UNL1        0.0000
     21 N          -1.9925    0.7889   -1.0808 N.ar    1  UNL1        0.0000
     22 C          -0.2714    0.5714   -2.1098 C.ar    1  UNL1        0.0000
     23 C          -0.8593   -2.6798   -1.4923 C.3     1  UNL1        0.0000
     24 C          -1.3767    1.1601    0.5289 C.3     1  UNL1        0.0000
     25 C           1.6224    0.5392   -1.7351 C.3     1  UNL1        0.0000
     26 C          -1.4192    1.1075    0.5651 C.3     1  UNL1        0.0000
     27 C          -2.1271   -0.4469    0.4579 C.3     1  UNL1        0.0000
     28 C           2.2413   -0.8743    1.4241 C.3     1  UNL1        0.0000
     29 C          -0.1879    1.0169    1.8330 C.3     1  UNL1        0.0000
     30 C          -2.1171   -0.5235    0.4575 C.3     1  UNL1        0.0000
     31 C          -0.1933    0.5873   -1.9960 C.ar    1  UNL1        0.0000
     32 N          -1.2915    2.9292    0.8279 N.ar    1  UNL1        0.0000
     33 N           0.8431    2.1903    1.7146 N.ar    1  UNL1        0.0000
     34 C          -0.0532   -0.3443    0.6964 C.ar    1  UNL1        0.0000
     35 C           0.2499    0.7235   -0.4697 C.ar    1  UNL1        0.0000
     36 H          -1.9669    0.0750    1.8948 H       1  UNL1        0.0000
     37 H           0.4454   -3.4423    1.2083 H       1  UNL1        0.0000
     38 H          -0.7202    2.1759    2.6411 H       1  UNL1        0.0000
     39 H           0.3645   -2.7939   -2.5787 H       1  UNL1        0.0000
     40 H          -2.0699   -1.4065    2.0604 H       1  UNL1        0.0000
     41 H           1.6334   -2.2687    1.2898 H       1  UNL1        0.0000
     42 H          -2.7288   -0.6599   -1.0641 H       1  UNL1        0.0000
     43 H          -0.6341    1.6238   -3.1071 H       1  UNL1        0.0000
     44 H           2.0165    1.4882   -0.6952 H       1  UNL1        0.0000
     45 H           2.4408   -1.3508    0.0552 H       1  UNL1        0.0000
     46 H          -3.1028   -1.3152    1.4786 H       1  UNL1        0.0000
     47 H           0.2419    0.1346   -3.9132 H       1  UNL1        0.0000
     48 H           3.2234   -0.7481   -1.1903 H       1  UNL1        0.0000
     49 H          -0.6585    0.6897    3.2706 H       1  UNL1        0.0000
     50 H          -0.6723   -2.0719    1.5569 H       1  UNL1        0.0000
     51 H          -1.1952   -2.2956   -1.7876 H       1  UNL1        0.0000
     52 H          -0.8920    2.9938   -0.6107 H       1  UNL1        0.0000
     53 H          -0.0930   -2.7986   -1.2541 H       1  UNL1        0.0000
     54 H          -1.0719    1.8130   -1.0196 H       1  UNL1        0.0000
     55 H           0.5560   -2.4787   -1.2217 H       1  UNL1        0.0000
     56 H           2.6521    0.6424    0.8713 H       1  UNL1        0.0000
     57 H           1.1715   -1.7671   -3.0228 H       1  UNL1        0.0000
     58 H          -1.4927   -1.1590   -2.4299 H       1  UNL1        0.0000
     59 H           0.8191    0.1019    2.5025 H       1  UNL1        0.0000
     60 H          -2.5718    1.8527   -0.2036 H       1  UNL1        0.0000
     61 H           1.1371    1.0844   -3.0208 H       1  UNL1        0.0000
     62 H           1.1750    1.1008   -3.0180 H       1  UNL1        0.0000
     63 H           1.7669    2.9027   -0.6891 H       1  UNL1        0.0000
     64 H           3.1488   -0.1110   -0.0654 H       1  UNL1        0.0000
     65 H          -1.3393   -3.8991    0.9013 H       1  UNL1        0.0000
     66 H          -1.6283    1.2542    2.2598 H       1  UNL1        0.0000
     67 H           2.2281    2.3810    1.1258 H       1  UNL1        0.0000
     68 EU          1.2689    2.1366    0.3150 Eu      1  UNL1        0.0000
@<TRIPOS>BOND
     1     1     2    2
     2     2     3   am
     3     3     4    1
     4     3     5    1
     5     5     6    1
     6     6     7    1
     7     2     8    1
     8     8     9   ar
     9     9    10   ar
    10     8    11   ar
    11    11    12   ar
    12    12    13   ar
    13    10    13   ar
    14    13    14   ar
    15    14    15   ar
    16    15    16   ar
    17    16    17   ar
    18    12    17   ar
    19    17    18   ar
    20    18    19   ar
    21    19    20    1
    22    20    21   ar
    23    21    22   ar
    24    22    23    1
    25    23    24    1
    26    23    25    1
    27    23    26    1
    28    26    27    1
    29    27    28    1
    30    28    29    1
    31    28    30    1
    32    22    31   ar
    33    28    31    1
    34    31    32   ar
    35    32    33   ar
    36    20    33   ar
    37    19    34   ar
    38    34    35   ar
    39    16    35   ar
    40     4    36    1
    41     4    37    1
    42     4    38    1
    43     5    39    1
    44     5    40    1
    45     6    41    1
    46     6    42    1
    47     7    43    1
    48     7    44    1
    49     7    45    1
    50     9    46    1
    51    10    47    1
    52    14    48    1
    53    15    49    1
    54    24    50    1
    55    24    51    1
    56    24    52    1
    57    25    53    1
    58    25    54    1
    59    25    55    1
    60    26    56    1
    61    26    57    1
    62    27    58    1
    63    27    59    1
    64    29    60    1
    65    29    61    1
    66    29    62    1
    67    30    63    1
    68    30    64    1
    69    30    65    1
    70    34    66    1
    71    35    67    1
    72    68     1    1
    73    68    33    1
    74    68    18    1
    75    68    11    1
@<TRIPOS>MOLECULE
*****
 68 75 0 0 0
SMALL
GASTEIGER

@<TRIPOS>ATOM
      1 O           1.5248   -0.5223   -0.6404 O.2     1  UNL1        0.0000
      2 C          -0.9267   -0.2077   -0.7684 C.2     1  UNL1        0.0000
      3 N          -1.2606   -0.8309    2.2863 N.am    1  UNL1        0.0000
      4 C          -1.1727   -0.3512    2.3717 C.3     1  UNL1        0.0000
      5 C          -0.8408   -0.8604    2.5901 C.3     1  UNL1        0.0000
      6 C           0.8884   -2.0851    2.0137 C.3     1  UNL1        0.0000
      7 C          -1.7757   -2.1788    0.0003 C.3     1  UNL1        0.0000
      8 C           0.0499    2.1427    0.3191 C.ar    1  UNL1        0.0000
      9 C           1.2455    0.8812    0.7559 C.ar    1  UNL1        0.0000
     10 C          -0.0827   -0.2441   -3.7895 C.ar    1  UNL1        0.0000
     11 N           0.4897    2.3073   -0.3048 N.ar    1  UNL1        0.0000
     12 C           0.5373    2.0470   -2.0842 C.ar    1  UNL1        0.0000
     13 C          -1.5103    0.4207   -3.0954 C.ar    1  UNL1        0.0000
     14 C           0.1664   -2.3044    0.1787 C.ar    1  UNL1        0.0000
     15 C           0.0686   -2.3434    0.1768 C.ar    1  UNL1        0.0000
     16 C           0.1951   -1.3784   -1.9948 C.ar    1  UNL1        0.0000
     17 C           1.7257   -1.1642   -1.8225 C.ar    1  UNL1        0.0000
     18 N           0.5473   -0.5143    1.2998 N.ar    1  UNL1        0.0000
     19 C          -0.1420   -0.6217    0.9248 C.ar    1  UNL1        0.0000
     20 C          -0.2200   -0.5923    0.9514 C.ar    1  UNL1        0.0000
     21 N          -1.9925    0.7889   -1.0808 N.ar    1  UNL1        0.0000
     22 C          -0.2714    0.5714   -2.1098 C.ar    1  UNL1        0.0000
     23 C          -0.8593   -2.6798   -1.4923 C.3     1  UNL1        0.0000
     24 C          -1.3767    1.1601    0.5289 C.3     1  UNL1        0.0000
     25 C           1.6224    0.5392   -1.7351 C.3     1  UNL1        0.0000
     26 C          -1.4192    1.1075    0.5651 C.3     1  UNL1        0.0000
     27 C          -2.1271   -0.4469    0.4579 C.3     1  UNL1        0.0000
     28 C           2.2413   -0.8743    1.4241 C.3     1  UNL1        0.0000
     29 C          -0.1879    1.0169    1.8330 C.3     1  UNL1        0.0000
     30 C          -2.1171   -0.5235    0.4575 C.3     1  UNL1        0.0000
     31 C          -0.1933    0.5873   -1.9960 C.ar    1  UNL1        0.0000
     32 N          -1.2915    2.9292    0.8279 N.ar    1  UNL1        0.0000
     33 N           0.8431    2.1903    1.7146 N.ar    1  UNL1        0.0000
     34 C          -0.0532   -0.3443    0.6964 C.ar    1  UNL1        0.0000
     35 C           0.2499    0.7235   -0.4697 C.ar    1  UNL1        0.0000
     36 H          -1.9669    0.0750    1.8948 H       1  UNL1        0.0000
     37 H           0.4454   -3.4423    1.2083 H       1  UNL1        0.0000
     38 H          -0.7202    2.1759    2.6411 H       1  UNL1        0.0000
     39 H           0.3645   -2.7939   -2.5787 H       1  UNL1        0.0000
     40 H          -2.0699   -1.4065    2.0604 H       1  UNL1        0.0000
     41 H           1.6334   -2.2687    1.2898 H       1  UNL1        0.0000
     42 H          -2.7288   -0.6599   -1.0641 H       1  UNL1        0.0000
     43 H          -0.6341    1.6238   -3.1071 H       1  UNL1        0.0000
     44 H           2.0165    1.4882   -0.6952 H       1  UNL1        0.0000
     45 H           2.4408   -1.3508    0.0552 H       1  UNL1        0.0000
     46 H          -3.1028   -1.3152    1.4786 H       1  UNL1        0.0000
     47 H           0.2419    0.1346   -3.9132 H       1  UNL1        0.0000
     48 H           3.2234   -0.7481   -1.1903 H       1  UNL1        0.0000
     49 H          -0.6585    0.6897    3.2706 H       1  UNL1        0.0000
     50 H          -0.6723   -2.0719    1.5569 H       1  UNL1        0.0000
     51 H          -1.1952   -2.2956   -1.7876 H       1  UNL1        0.0000
     52 H          -0.8920    2.9938   -0.6107 H       1  UNL1        0.0000
     53 H          -0.0930   -2.7986   -1.2541 H       1  UNL1        0.0000
     54 H          -1.0719    1.8130   -1.0196 H       1  UNL1        0.0000
     55 H           0.5560   -2.4787   -1.2217 H       1  UNL1        0.0000
     56 H           2.6521    0.6424    0.8713 H       1  UNL1        0.0000
     57 H           1.1715   -1.7671   -3.0228 H       1  UNL1        0.0000
     58 H          -1.4927   -1.1590   -2.4299 H       1  UNL1        0.0000
     59 H           0.8191    0.1019    2.5025 H       1  UNL1        0.0000
     60 H          -2.5718    1.8527   -0.2036 H       1  UNL1        0.0000
     61 H           1.1371    1.0844   -3.0208 H       1  UNL1        0.0000
     62 H           1.1750    1.1008   -3.0180 H       1  UNL1        0.0000
     63 H           1.7669    2.9027   -0.6891 H       1  UNL1        0.0000
     64 H           3.1488   -0.1110   -0.0654 H       1  UNL1        0.0000
     65 H          -1.3393   -3.8991    0.9013 H       1  UNL1        0.0000
     66 H          -1.6283    1.2542    2.2598 H       1  UNL1        0.0000
     67 H           2.2281    2.3810    1.1258 H       1  UNL1        0.0000
     68 EU          1.2689    2.1366    0.3150 Eu      1  UNL1        0.0000
@<TRIPOS>BOND
     1     1     2    2
     2     2     3   am
     3     3     4    1
     4     3     5    1
     5     5     6    1
     6     6     7    1
     7     2     8    1
     8     8     9   ar
     9     9    10   ar
    10     8    11   ar
    11    11    12   ar
    12    12    13   ar
    13    10    13   ar
    14    13    14   ar
    15    14    15   ar
    16    15    16   ar
    17    16    17   ar
    18    12    17   ar
    19    17    18   ar
    20    18    19   ar
    21    19    20    1
    22    20    21   ar
    23    21    22   ar
    24    22    23    1
    25    23    24    1
    26    23    25    1
    27    23    26    1
    28    26    27    1
    29    27    28    1
    30    28    29    1
    31    28    30    1
    32    22    31   ar
    33    28    31    1
    34    31    32   ar
    35    32    33   ar
    36    20    33   ar
    37    19    34   ar
    38    34    35   ar
    39    16    35   ar
    40     4    36    1
    41     4    37    1
    42     4    38    1
    43     5    39    1
    44     5    40    1
    45     6    41    1
    46     6    42    1
    47     7    43    1
    48     7    44    1
    49     7    45    1
    50     9    46    1
    51    10    47    1
    52    14    48    1
    53    15    49    1
    54    24    50    1
    55    24    51    1
    56    24    52    1
    57    25    53    1
    58    25    54    1
    59    25    55    1
    60    26    56    1
    61    26    57    1
    62    27    58    1
    63    27    59    1
    64    29    60    1
    65    29    61    1
    66    29    62    1
    67    30    63    1
    68    30    64    1
    69    30    65    1
    70    34    66    1
    71    35    67    1
    72    68     1    1
    73    68    33    1
    74    68    18    1
    75    68    11    1
@<TRIPOS>MOLECULE
*****
 68 75 0 0 0
SMALL
GASTEIGER

@<TRIPOS>ATOM
      1 O           1.5248   -0.5223   -0.6404 O.2     1  UNL1        0.0000
      2 C          -0.9267   -0.2077   -0.7684 C.2     1  UNL1        0.0000
      3 N          -1.2606   -0.8309    2.2863 N.am    1  UNL1        0.0000
      4 C          -1.1727   -0.3512    2.3717 C.3     1  UNL1        0.0000
      5 C          -0.8408   -0.8604    2.5901 C.3     1  UNL1        0.0000
      6 C           0.8884   -2.0851    2.0137 C.3     1  UNL1        0.0000
      7 C          -1.7757   -2.1788    0.0003 C.3     1  UNL1        0.0000
      8 C           0.0499    2.1427    0.3191 C.ar    1  UNL1        0.0000
      9 C           1.2455    0.8812    0.7559 C.ar    1  UNL1        0.0000
     10 C          -0.0827   -0.2441   -3.7895 C.ar    1  UNL1        0.0000
     11 N           0.4897    2.3073   -0.3048 N.ar    1  UNL1        0.0000
     12 C           0.5373    2.0470   -2.0842 C.ar    1  UNL1        0.0000
     13 C          -1.5103    0.4207   -3.0954 C.ar    1  UNL1        0.0000
     14 C           0.1664   -2.3044    0.1787 C.ar    1  UNL1        0.0000
     15 C           0.0686   -2.3434    0.1768 C.ar    1  UNL1        0.0000
     16 C           0.1951   -1.3784   -1.9948 C.ar    1  UNL1        0.0000
     17 C           1.7257   -1.1642   -1.8225 C.ar    1  UNL1        0.0000
     18 N           0.5473   -0.5143    1.2998 N.ar    1  UNL1        0.0000
     19 C          -0.1420   -0.6217    0.9248 C.ar    1  UNL1        0.0000
     20 C          -0.2200   -0.5923    0.9514 C.ar    1  UNL1        0.0000
     21 N          -1.9925    0.7889   -1.0808 N.ar    1  UNL1        0.0000
     22 C          -0.2714    0.5714   -2.1098 C.ar    1  UNL1        0.0000
     23 C          -0.8593   -2.6798   -1.4923 C.3     1  UNL1        0.0000
     24 C          -1.3767    1.1601    0.5289 C.3     1  UNL1        0.0000
     25 C           1.6224    0.5392   -1.7351 C.3     1  UNL1        0.0000
     26 C          -1.4192    1.1075    0.5651 C.3     1  UNL1        0.0000
     27 C          -2.1271   -0.4469    0.4579 C.3     1  UNL1        0.0000
     28 C           2.2413   -0.8743    1.4241 C.3     1  UNL1        0.0000
     29 C          -0.1879    1.0169    1.8330 C.3     1  UNL1        0.0000
     30 C          -2.1171   -0.5235    0.4575 C.3     1  UNL1        0.0000
     31 C          -0.1933    0.5873   -1.9960 C.ar    1  UNL1        0.0000
     32 N          -1.2915    2.9292    0.8279 N.ar    1  UNL1        0.0000
     33 N           0.8431    2.1903    1.7146 N.ar    1  UNL1        0.0000
     34 C          -0.0532   -0.3443    0.6964 C.ar    1  UNL1        0.0000
     35 C           0.2499    0.7235   -0.4697 C.ar    1  UNL1        0.0000
     36 H          -1.9669    0.0750    1.8948 H       1  UNL1        0.0000
     37 H           0.4454   -3.4423    1.2083 H       1  UNL1        0.0000
     38 H          -0.7202    2.1759    2.6411 H       1  UNL1        0.0000
     39 H           0.3645   -2.7939   -2.5787 H       1  UNL1        0.0000
     40 H          -2.0699   -1.4065    2.0604 H       1  UNL1        0.0000
     41 H           1.6334   -2.2687    1.2898 H       1  UNL1        0.0000
     42 H          -2.7288   -0.6599   -1.0641 H       1  UNL1        0.0000
     43 H          -0.6341    1.6238   -3.1071 H       1  UNL1        0.0000
     44 H           2.0165    1.4882   -0.6952 H       1  UNL1        0.0000
     45 H           2.4408   -1.3508    0.0552 H       1  UNL1        0.0000
     46 H          -3.1028   -1.3152    1.4786 H       1  UNL1        0.0000
     47 H           0.2419    0.1346   -3.9132 H       1  UNL1        0.0000
     48 H           3.2234   -0.7481   -1.1903 H       1  UNL1        0.0000
     49 H          -0.6585    0.6897    3.2706 H       1  UNL1        0.0000
     50 H          -0.6723   -2.0719    1.5569 H       1  UNL1        0.0000
     51 H          -1.1952   -2.2956   -1.7876 H       1  UNL1        0.0000
     52 H          -0.8920    2.9938   -0.6107 H       1  UNL1        0.0000
     53 H          -0.0930   -2.7986   -1.2541 H       1  UNL1        0.0000
     54 H          -1.0719    1.8130   -1.0196 H       1  UNL1        0.0000
     55 H           0.5560   -2.4787   -1.2217 H       1  UNL1        0.0000
     56 H           2.6521    0.6424    0.8713 H       1  UNL1        0.0000
     57 H           1.1715   -1.7671   -3.0228 H       1  UNL1        0.0000
     58 H          -1.4927   -1.1590   -2.4299 H       1  UNL1        0.0000
     59 H           0.8191    0.1019    2.5025 H       1  UNL1        0.0000
     60 H          -2.5718    1.8527   -0.2036 H       1  UNL1        0.0000
     61 H           1.1371    1.0844   -3.0208 H       1  UNL1        0.0000
     62 H           1.1750    1.1008   -3.0180 H       1  UNL1        0.0000
     63 H           1.7669    2.9027   -0.6891 H       1  UNL1        0.0000
     64 H           3.1488   -0.1110   -0.0654 H       1  UNL1        0.0000
     65 H          -1.3393   -3.8991    0.9013 H       1  UNL1        0.0000
     66 H          -1.6283    1.2542    2.2598 H       1  UNL1        0.0000
     67 H           2.2281    2.3810    1.1258 H       1  UNL1        0.0000
     68 EU          1.2689    2.1366    0.3150 Eu      1  UNL1        0.0000
@<TRIPOS>BOND
     1     1     2    2
     2     2     3   am
     3     3     4    1
     4     3     5    1
     5     5     6    1
     6     6     7    1
     7     2     8    1
     8     8     9   ar
     9     9    10   ar
    10     8    11   ar
    11    11    12   ar
    12    12    13   ar
    13    10    13   ar
    14    13    14   ar
    15    14    15   ar
    16    15    16   ar
    17    16    17   ar
    18    12    17   ar
    19    17    18   ar
    20    18    19   ar
    21    19    20    1
    22    20    21   ar
    23    21    22   ar
    24    22    23    1
    25    23    24    1
    26    23    25    1
    27    23    26    1
    28    26    27    1
    29    27    28    1
    30    28    29    1
    31    28    30    1
    32    22    31   ar
    33    28    31    1
    34    31    32   ar
    35    32    33   ar
    36    20    33   ar
    37    19    34   ar
    38    34    35   ar
    39    16    35   ar
    40     4    36    1
    41     4    37    1
    42     4    38    1
    43     5    39    1
    44     5    40    1
    45     6    41    1
    46     6    42    1
    47     7    43    1
    48     7    44    1
    49     7    45    1
    50     9    46    1
    51    10    47    1
    52    14    48    1
    53    15    49    1
    54    24    50    1
    55    24    51    1
    56    24    52    1
    57    25    53    1
    58    25    54    1
    59    25    55    1
    60    26    56    1
    61    26    57    1
    62    27    58    1
    63    27    59    1
    64    29    60    1
    65    29    61    1
    66    29    62    1
    67    30    63    1
    68    30    64    1
    69    30    65    1
    70    34    66    1
    71    35    67    1
    72    68     1    1
    73    68    33    1
    74    68    18    1
    75    68    11    1
@<TRIPOS>MOLECULE
*****
 68 75 0 0 0
SMALL
GASTEIGER

@<TRIPOS>ATOM
      1 O           1.5248   -0.5223   -0.6404 O.2     1  UNL1        0.0000
      2 C          -0.9267   -0.2077   -0.7684 C.2     1  UNL1        0.0000
      3 N          -1.2606   -0.8309    2.2863 N.am    1  UNL1        0.0000
      4 C          -1.1727   -0.3512    2.3717 C.3     1  UNL1        0.0000
      5 C          -0.8408   -0.8604    2.5901 C.3     1  UNL1        0.0000
      6 C           0.8884   -2.0851    2.0137 C.3     1  UNL1        0.0000
      7 C          -1.7757   -2.1788    0.0003 C.3     1  UNL1        0.0000
      8 C           0.0499    2.1427    0.3191 C.ar    1  UNL1        0.0000
      9 C           1.2455    0.8812    0.7559 C.ar    1  UNL1        0.0000
     10 C          -0.0827   -0.2441   -3.7895 C.ar    1  UNL1        0.0000
     11 N           0.4897    2.3073   -0.3048 N.ar    1  UNL1        0.0000
     12 C           0.5373    2.0470   -2.0842 C.ar    1  UNL1        0.0000
     13 C          -1.5103    0.4207   -3.0954 C.ar    1  UNL1        0.0000
     14 C           0.1664   -2.3044    0.1787 C.ar    1  UNL1        0.0000
     15 C           0.0686   -2.3434    0.1768 C.ar    1  UNL1        0.0000
     16 C           0.1951   -1.3784   -1.9948 C.ar    1  UNL1        0.0000
     17 C           1.7257   -1.1642   -1.8225 C.ar    1  UNL1        0.0000
     18 N           0.5473   -0.5143    1.2998 N.ar    1  UNL1        0.0000
     19 C          -0.1420   -0.6217    0.9248 C.ar    1  UNL1        0.0000
     20 C          -0.2200   -0.5923    0.9514 C.ar    1  UNL1        0.0000
     21 N          -1.9925    0.7889   -1.0808 N.ar    1  UNL1        0.0000
     22 C          -0.2714    0.5714   -2.1098 C.ar    1  UNL1        0.0000
     23 C          -0.8593   -2.6798   -1.4923 C.3     1  UNL1        0.0000
     24 C          -1.3767    1.1601    0.5289 C.3     1  UNL1        0.0000
     25 C           1.6224    0.5392   -1.7351 C.3     1  UNL1        0.0000
     26 C          -1.4192    1.1075    0.5651 C.3     1  UNL1        0.0000
     27 C          -2.1271   -0.4469    0.4579 C.3     1  UNL1        0.0000
     28 C           2.2413   -0.8743    1.4241 C.3     1  UNL1        0.0000
     29 C          -0.1879    1.0169    1.8330 C.3     1  UNL1        0.0000
     30 C          -2.1171   -0.5235    0.4575 C.3     1  UNL1        0.0000
     31 C          -0.1933    0.5873   -1.9960 C.ar    1  UNL1        0.0000
     32 N          -1.2915    2.9292    0.8279 N.ar    1  UNL1        0.0000
     33 N           0.8431    2.1903    1.7146 N.ar    1  UNL1        0.0000
     34 C          -0.0532   -0.3443    0.6964 C.ar    1  UNL1        0.0000
     35 C           0.2499    0.7235   -0.4697 C.ar    1  UNL1        0.0000
     36 H          -1.9669    0.0750    1.8948 H       1  UNL1        0.0000
     37 H           0.4454   -3.4423    1.2083 H       1  UNL1        0.0000
     38 H          -0.7202    2.1759    2.6411 H       1  UNL1        0.0000
     39 H           0.3645   -2.7939   -2.5787 H       1  UNL1        0.0000
     40 H          -2.0699   -1.4065    2.0604 H       1  UNL1        0.0000
     41 H           1.6334   -2.2687    1.2898 H       1  UNL1        0.0000
     42 H          -2.7288   -0.6599   -1.0641 H       1  UNL1        0.0000
     43 H          -0.6341    1.6238   -3.1071 H       1  UNL1        0.0000
     44 H           2.0165    1.4882   -0.6952 H       1  UNL1        0.0000
     45 H           2.4408   -1.3508    0.0552 H       1  UNL1        0.0000
     46 H          -3.1028   -1.3152    1.4786 H       1  UNL1        0.0000
     47 H           0.2419    0.1346   -3.9132 H       1  UNL1        0.0000
     48 H           3.2234   -0.7481   -1.1903 H       1  UNL1        0.0000
     49 H          -0.6585    0.6897    3.2706 H       1  UNL1        0.0000
     50 H          -0.6723   -2.0719    1.5569 H       1  UNL1        0.0000
     51 H          -1.1952   -2.2956   -1.7876 H       1  UNL1        0.0000
     52 H          -0.8920    2.9938   -0.6107 H       1  UNL1        0.0000
     53 H          -0.0930   -2.7986   -1.2541 H       1  UNL1        0.0000
     54 H          -1.0719    1.8130   -1.0196 H       1  UNL1        0.0000
     55 H           0.5560   -2.4787   -1.2217 H       1  UNL1        0.0000
     56 H           2.6521    0.6424    0.8713 H       1  UNL1        0.0000
     57 H           1.1715   -1.7671   -3.0228 H       1  UNL1        0.0000
     58 H          -1.4927   -1.1590   -2.4299 H       1  UNL1        0.0000
     59 H           0.8191    0.1019    2.5025 H       1  UNL1        0.0000
     60 H          -2.5718    1.8527   -0.2036 H       1  UNL1        0.0000
     61 H           1.1371    1.0844   -3.0208 H       1  UNL1        0.0000
     62 H           1.1750    1.1008   -3.0180 H       1  UNL1        0.0000
     63 H           1.7669    2.9027   -0.6891 H       1  UNL1        0.0000
     64 H           3.1488   -0.1110   -0.0654 H       1  UNL1        0.0000
     65 H          -1.3393   -3.8991    0.9013 H       1  UNL1        0.0000
     66 H          -1.6283    1.2542    2.2598 H       1  UNL1        0.0000
     67 H           2.2281    2.3810    1.1258 H       1  UNL1        0.0000
     68 EU          1.2689    2.1366    0.3150 Eu      1  UNL1        0.0000
@<TRIPOS>BOND
     1     1     2    2
     2     2     3   am
     3     3     4    1
     4     3     5    1
     5     5     6    1
     6     6     7    1
     7     2     8    1
     8     8     9   ar
     9     9    10   ar
    10     8    11   ar
    11    11    12   ar
    12    12    13   ar
    13    10    13   ar
    14    13    14   ar
    15    14    15   ar
    16    15    16   ar
    17    16    17   ar
    18    12    17   ar
    19    17    18   ar
    20    18    19   ar
    21    19    20    1
    22    20    21   ar
    23    21    22   ar
    24    22    23    1
    25    23    24    1
    26    23    25    1
    27    23    26    1
    28    26    27    1
    29    27    28    1
    30    28    29    1
    31    28    30    1
    32    22    31   ar
    33    28    31    1
    34    31    32   ar
    35    32    33   ar
    36    20    33   ar
    37    19    34   ar
    38    34    35   ar
    39    16    35   ar
    40     4    36    1
    41     4    37    1
    42     4    38    1
    43     5    39    1
    44     5    40    1
    45     6    41    1
    46     6    42    1
    47     7    43    1
    48     7    44    1
    49     7    45    1
    50     9    46    1
    51    10    47    1
    52    14    48    1
    53    15    49    1
    54    24    50    1
    55    24    51    1
    56    24    52    1
    57    25    53    1
    58    25    54    1
    59    25    55    1
    60    26    56    1
    61    26    57    1
    62    27    58    1
    63    27    59    1
    64    29    60    1
    65    29    61    1
    66    29    62    1
    67    30    63    1
    68    30    64    1
    69    30    65    1
    70    34    66    1
    71    35    67    1
    72    68     1    1
    73    68    33    1
    74    68    18    1
    75    68    11    1
@<TRIPOS>MOLECULE
*****
 68 75 0 0 0
SMALL
GASTEIGER

@<TRIPOS>ATOM
      1 O           1.1100    0.0046   -0.7978 O.2     1  UNL1        0.0000
      2 C          -1.4250   -1.3478   -0.6312 C.2     1  UNL1        0.0000
      3 N          -0.9233   -0.9723    1.8549 N.am    1  UNL1        0.0000
      4 C          -1.0734   -0.6190    2.0564 C.3     1  UNL1        0.0000
      5 C          -0.7372   -0.6927    2.2464 C.3     1  UNL1        0.0000
      6 C           1.4443   -2.0417    2.8302 C.3     1  UNL1        0.0000
      7 C          -1.9328   -3.1042    0.1913 C.3     1  UNL1        0.0000
      8 C          -0.3067    2.3589    0.7541 C.ar    1  UNL1        0.0000
      9 C           1.7618    0.5737    1.0133 C.ar    1  UNL1        0.0000
     10 C          -0.1109   -0.4357   -3.7006 C.ar    1  UNL1        0.0000
     11 N          -0.0926    2.4789   -0.1230 N.ar    1  UNL1        0.0000
     12 C           0.8447    2.2103   -1.9157 C.ar    1  UNL1        0.0000
     13 C          -1.4998    1.1046   -2.8161 C.ar    1  UNL1        0.0000
     14 C          -0.0488   -2.0546   -0.1416 C.ar    1  UNL1        0.0000
     15 C           0.7891   -1.9545    0.6768 C.ar    1  UNL1        0.0000
     16 C          -0.1757   -1.3055   -2.3556 C.ar    1  UNL1        0.0000
     17 C           1.5297   -0.5641   -2.0802 C.ar    1  UNL1        0.0000
     18 N           0.6087   -0.6441    0.7781 N.ar    1  UNL1        0.0000
     19 C           0.8168   -0.9472    0.9641 C.ar    1  UNL1        0.0000
     20 C           0.0692   -1.3720    0.6719 C.ar    1  UNL1        0.0000
     21 N          -1.7857    0.4353   -0.7373 N.ar    1  UNL1        0.0000
     22 C          -0.7212    0.4266   -1.9296 C.ar    1  UNL1        0.0000
     23 C          -1.0545   -3.9059   -0.8805 C.3     1  UNL1        0.0000
     24 C          -1.6322    1.5817    0.4761 C.3     1  UNL1        0.0000
     25 C           1.0617    1.0916   -1.1207 C.3     1  UNL1        0.0000
     26 C          -1.1079    0.4768    0.2883 C.3     1  UNL1        0.0000
     27 C          -2.2972   -0.2147   -0.0791 C.3     1  UNL1        0.0000
     28 C           1.8303   -0.6961    1.9161 C.3     1  UNL1        0.0000
     29 C           0.5050    0.7210    2.0155 C.3     1  UNL1        0.0000
     30 C          -1.5868   -1.5545    0.3259 C.3     1  UNL1        0.0000
     31 C          -0.3431    0.7645   -1.7758 C.ar    1  UNL1        0.0000
     32 N          -1.2569    2.5592    0.9757 N.ar    1  UNL1        0.0000
     33 N           0.6171    1.6888    2.5210 N.ar    1  UNL1        0.0000
     34 C           0.2119   -0.3834    0.7470 C.ar    1  UNL1        0.0000
     35 C          -0.2241    1.4187   -0.0130 C.ar    1  UNL1        0.0000
     36 H          -2.0974    0.2067    2.8860 H       1  UNL1        0.0000
     37 H          -0.2936   -3.3247    1.7083 H       1  UNL1        0.0000
     38 H          -0.0092    1.5339    2.8877 H       1  UNL1        0.0000
     39 H          -0.2133   -2.5154   -2.4207 H       1  UNL1        0.0000
     40 H          -2.5117   -0.9065    1.5958 H       1  UNL1        0.0000
     41 H           2.2173   -2.1461    1.9637 H       1  UNL1        0.0000
     42 H          -2.5118   -0.3746   -1.2049 H       1  UNL1        0.0000
     43 H          -1.2630    2.4403   -3.7982 H       1  UNL1        0.0000
     44 H           2.1988    1.7007   -0.6704 H       1  UNL1        0.0000
     45 H           2.1632   -1.4942    0.1570 H       1  UNL1        0.0000
     46 H          -2.5498   -1.1280    2.1344 H       1  UNL1        0.0000
     47 H           0.4180   -1.1615   -3.4789 H       1  UNL1        0.0000
     48 H           3.7234   -0.3416   -1.8634 H       1  UNL1        0.0000
     49 H          -0.8591    0.9116    3.2106 H       1  UNL1        0.0000
     50 H          -0.8774   -1.3182    1.6665 H       1  UNL1        0.0000
     51 H          -1.8694   -1.5584   -1.3733 H       1  UNL1        0.0000
     52 H          -1.2557    3.1633   -0.4716 H       1  UNL1        0.0000
     53 H           0.2112   -3.5441   -1.6815 H       1  UNL1        0.0000
     54 H          -1.2343    2.1896   -0.2965 H       1  UNL1        0.0000
     55 H           0.7434   -1.5496   -0.6082 H       1  UNL1        0.0000
     56 H           2.5235    1.1443    1.1549 H       1  UNL1        0.0000
     57 H           0.9654   -2.1770   -3.0320 H       1  UNL1        0.0000
     58 H          -1.7287   -1.8071   -3.1256 H       1  UNL1        0.0000
     59 H           0.9446   -0.7558    2.1184 H       1  UNL1        0.0000
     60 H          -2.4807    2.2335   -0.0832 H       1  UNL1        0.0000
     61 H           0.7736    0.9562   -3.2015 H       1  UNL1        0.0000
     62 H           1.8744    1.9415   -3.2745 H       1  UNL1        0.0000
     63 H           1.1870    3.2099   -0.1891 H       1  UNL1        0.0000
     64 H           3.2281   -1.0346   -0.1217 H       1  UNL1        0.0000
     65 H          -1.2439   -3.1660    1.8727 H       1  UNL1        0.0000
     66 H          -1.6899    1.1266    2.4174 H       1  UNL1        0.0000
     67 H           2.3283    1.6348    1.7168 H       1  UNL1        0.0000
     68 EU          1.0767    1.4213    0.2443 Eu      1  UNL1        0.0000
@<TRIPOS>BOND
     1     1     2    2
     2     2     3   am
     3     3     4    1
     4     3     5    1
     5     5     6    1
     6     6     7    1
     7     2     8    1
     8     8     9   ar
     9     9    10   ar
    10     8    11   ar
    11    11    12   ar
    12    12    13   ar
    13    10    13   ar
    14    13    14   ar
    15    14    15   ar
    16    15    16   ar
    17    16    17   ar
    18    12    17   ar
    19    17    18   ar
    20    18    19   ar
    21    19    20    1
    22    20    21   ar
    23    21    22   ar
    24    22    23    1
    25    23    24    1
    26    23    25    1
    27    23    26    1
    28    26    27    1
    29    27    28    1
    30    28    29    1
    31    28    30    1
    32    22    31   ar
    33    28    31    1
    34    31    32   ar
    35    32    33   ar
    36    20    33   ar
    37    19    34   ar
    38    34    35   ar
    39    16    35   ar
    40     4    36    1
    41     4    37    1
    42     4    38    1
    43     5    39    1
    44     5    40    1
    45     6    41    1
    46     6    42    1
    47     7    43    1
    48     7    44    1
    49     7    45    1
    50     9    46    1
    51    10    47    1
    52    14    48    1
    53    15    49    1
    54    24    50    1
    55    24    51    1
    56    24    52    1
    57    25    53    1
    58    25    54    1
    59    25    55    1
    60    26    56    1
    61    26    57    1
    62    27    58    1
    63    27    59    1
    64    29    60    1
    65    29    61    1
    66    29    62    1
    67    30    63    1
    68    30    64    1
    69    30    65    1
    70    34    66    1
    71    35    67    1
    72    68     1    1
    73    68    33    1
    74    68    18    1
    75    68    11    1
@<TRIPOS>MOLECULE
*****
 68 75 0 0 0
SMALL
GASTEIGER

@<TRIPOS>ATOM
      1 O           1.2612   -0.3804   -1.0067 O.2     1  UNL1        0.0000
      2 C          -1.1927   -0.5387   -0.6190 C.2     1  UNL1        0.0000
      3 N          -1.1525   -0.9227    2.1986 N.am    1  UNL1        0.0000
      4 C          -1.2388   -0.6610    2.1961 C.3     1  UNL1        0.0000
      5 C          -0.8803   -0.8073    2.4627 C.3     1  UNL1        0.0000
      6 C           1.4356   -2.0642    2.8409 C.3     1  UNL1        0.0000
      7 C          -1.9554   -3.1365    0.2013 C.3     1  UNL1        0.0000
      8 C          -0.2489    2.4415    0.6302 C.ar    1  UNL1        0.0000
      9 C           1.6409    0.7763    1.0230 C.ar    1  UNL1        0.0000
     10 C          -0.0795   -0.0925   -3.8951 C.ar    1  UNL1        0.0000
     11 N           0.0030    2.6803   -0.1391 N.ar    1  UNL1        0.0000
     12 C           0.7221    2.2595   -2.0048 C.ar    1  UNL1        0.0000
     13 C          -1.6570    0.7643   -2.8628 C.ar    1  UNL1        0.0000
     14 C           0.3881   -2.3908    0.1227 C.ar    1  UNL1        0.0000
     15 C           0.3762   -2.3562    0.1523 C.ar    1  UNL1        0.0000
     16 C           0.4292   -0.8528   -2.2493 C.ar    1  UNL1        0.0000
     17 C           1.6462   -0.6361   -2.2335 C.ar    1  UNL1        0.0000
     18 N           0.8225   -0.5856    0.8159 N.ar    1  UNL1        0.0000
     19 C           0.1561   -0.9806    0.9962 C.ar    1  UNL1        0.0000
     20 C          -0.0006   -1.0527    1.1204 C.ar    1  UNL1        0.0000
     21 N          -1.7878    0.6746   -0.9891 N.ar    1  UNL1        0.0000
     22 C          -0.6098    0.3678   -1.8093 C.ar    1  UNL1        0.0000
     23 C          -1.0334   -3.9108   -0.9036 C.3     1  UNL1        0.0000
     24 C          -1.6769    1.3556    0.5669 C.3     1  UNL1        0.0000
     25 C           1.1275    1.0486   -1.1140 C.3     1  UNL1        0.0000
     26 C          -1.2395    0.4996    0.4330 C.3     1  UNL1        0.0000
     27 C          -2.4995   -0.2629    0.1357 C.3     1  UNL1        0.0000
     28 C           1.8897   -0.7319    1.9054 C.3     1  UNL1        0.0000
     29 C           0.8805    0.5609    2.3078 C.3     1  UNL1        0.0000
     30 C          -1.6732   -1.6133    0.4523 C.3     1  UNL1        0.0000
     31 C          -0.3661    0.7649   -1.7033 C.ar    1  UNL1        0.0000
     32 N          -1.7530    2.7943    1.1007 N.ar    1  UNL1        0.0000
     33 N           0.4443    1.9090    2.0761 N.ar    1  UNL1        0.0000
     34 C          -0.1473    0.0300    1.2914 C.ar    1  UNL1        0.0000
     35 C           0.0498    1.1839   -0.0737 C.ar    1  UNL1        0.0000
     36 H          -2.1152    0.1760    2.9018 H       1  UNL1        0.0000
     37 H          -0.2079   -3.3383    1.6942 H       1  UNL1        0.0000
     38 H          -0.1465    1.5336    3.1149 H       1  UNL1        0.0000
     39 H          -0.2188   -2.5122   -2.4187 H       1  UNL1        0.0000
     40 H          -2.5135   -0.8120    1.3950 H       1  UNL1        0.0000
     41 H           2.2205   -2.1586    1.9643 H       1  UNL1        0.0000
     42 H          -2.5520   -0.4084   -1.2725 H       1  UNL1        0.0000
     43 H          -1.2635    2.4365   -3.7955 H       1  UNL1        0.0000
     44 H           2.2285    1.7133   -0.6622 H       1  UNL1        0.0000
     45 H           2.1455   -1.5033    0.1611 H       1  UNL1        0.0000
     46 H          -2.4671   -1.4305    2.4203 H       1  UNL1        0.0000
     47 H           0.3869   -1.2181   -3.6590 H       1  UNL1        0.0000
     48 H           3.6953   -0.4399   -2.0523 H       1  UNL1        0.0000
     49 H          -0.9615    0.7992    3.2601 H       1  UNL1        0.0000
     50 H          -0.9053   -1.9477    1.4870 H       1  UNL1        0.0000
     51 H          -1.8869   -1.5824   -1.3996 H       1  UNL1        0.0000
     52 H          -1.2728    3.2805   -0.4902 H       1  UNL1        0.0000
     53 H           0.2135   -3.5451   -1.6784 H       1  UNL1        0.0000
     54 H          -1.2321    2.1507   -0.4182 H       1  UNL1        0.0000
     55 H           0.7891   -1.4665   -0.7656 H       1  UNL1        0.0000
     56 H           2.8466    1.1462    1.0297 H       1  UNL1        0.0000
     57 H           0.9726   -2.1850   -3.0286 H       1  UNL1        0.0000
     58 H          -1.7293   -1.8062   -3.1238 H       1  UNL1        0.0000
     59 H           0.9760   -0.7756    2.1727 H       1  UNL1        0.0000
     60 H          -2.5229    2.2633   -0.1095 H       1  UNL1        0.0000
     61 H           0.7779    0.9604   -3.1964 H       1  UNL1        0.0000
     62 H           1.8748    1.9403   -3.2720 H       1  UNL1        0.0000
     63 H           1.2084    3.2189   -0.1901 H       1  UNL1        0.0000
     64 H           3.2420   -1.0276   -0.1259 H       1  UNL1        0.0000
     65 H          -1.3308   -3.1534    1.8886 H       1  UNL1        0.0000
     66 H          -1.6942    1.1642    2.3822 H       1  UNL1        0.0000
     67 H           2.3335    1.9164    1.7275 H       1  UNL1        0.0000
     68 EU          1.2636    1.8390    0.3070 Eu      1  UNL1        0.0000
@<TRIPOS>BOND
     1     1     2    2
     2     2     3   am
     3     3     4    1
     4     3     5    1
     5     5     6    1
     6     6     7    1
     7     2     8    1
     8     8     9   ar
     9     9    10   ar
    10     8    11   ar
    11    11    12   ar
    12    12    13   ar
    13    10    13   ar
    14    13    14   ar
    15    14    15   ar
    16    15    16   ar
    17    16    17   ar
    18    12    17   ar
    19    17    18   ar
    20    18    19   ar
    21    19    20    1
    22    20    21   ar
    23    21    22   ar
    24    22    23    1
    25    23    24    1
    26    23    25    1
    27    23    26    1
    28    26    27    1
    29    27    28    1
    30    28    29    1
    31    28    30    1
    32    22    31   ar
    33    28    31    1
    34    31    32   ar
    35    32    33   ar
    36    20    33   ar
    37    19    34   ar
    38    34    35   ar
    39    16    35   ar
    40     4    36    1
    41     4    37    1
    42     4    38    1
    43     5    39    1
    44     5    40    1
    45     6    41    1
    46     6    42    1
    47     7    43    1
    48     7    44    1
    49     7    45    1
    50     9    46    1
    51    10    47    1
    52    14    48    1
    53    15    49    1
    54    24    50    1
    55    24    51    1
    56    24    52    1
    57    25    53    1
    58    25    54    1
    59    25    55    1
    60    26    56    1
    61    26    57    1
    62    27    58    1
    63    27    59    1
    64    29    60    1
    65    29    61    1
    66    29    62    1
    67    30    63    1
    68    30    64    1
    69    30    65    1
    70    34    66    1
    71    35    67    1
    72    68     1    1
    73    68    33    1
    74    68    18    1
    75    68    11    1
@<TRIPOS>MOLECULE
*****
 68 75 0 0 0
SMALL
GASTEIGER

@<TRIPOS>ATOM
      1 O           1.2612   -0.3804   -1.0067 O.2     1  UNL1        0.0000
      2 C          -1.1927   -0.5387   -0.6190 C.2     1  UNL1        0.0000
      3 N          -1.1525   -0.9227    2.1986 N.am    1  UNL1        0.0000
      4 C          -1.2388   -0.6610    2.1961 C.3     1  UNL1        0.0000
      5 C          -0.8803   -0.8073    2.4627 C.3     1  UNL1        0.0000
      6 C           1.4356   -2.0642    2.8409 C.3     1  UNL1        0.0000
      7 C          -1.9554   -3.1365    0.2013 C.3     1  UNL1        0.0000
      8 C          -0.2489    2.4415    0.6302 C.ar    1  UNL1        0.0000
      9 C           1.6409    0.7763    1.0230 C.ar    1  UNL1        0.0000
     10 C          -0.0795   -0.0925   -3.8951 C.ar    1  UNL1        0.0000
     11 N           0.0030    2.6803   -0.1391 N.ar    1  UNL1        0.0000
     12 C           0.7221    2.2595   -2.0048 C.ar    1  UNL1        0.0000
     13 C          -1.6570    0.7643   -2.8628 C.ar    1  UNL1        0.0000
     14 C           0.3881   -2.3908    0.1227 C.ar    1  UNL1        0.0000
     15 C           0.3762   -2.3562    0.1523 C.ar    1  UNL1        0.0000
     16 C           0.4292   -0.8528   -2.2493 C.ar    1  UNL1        0.0000
     17 C           1.6462   -0.6361   -2.2335 C.ar    1  UNL1        0.0000
     18 N           0.8225   -0.5856    0.8159 N.ar    1  UNL1        0.0000
     19 C           0.1561   -0.9806    0.9962 C.ar    1  UNL1        0.0000
     20 C          -0.0006   -1.0527    1.1204 C.ar    1  UNL1        0.0000
     21 N          -1.7878    0.6746   -0.9891 N.ar    1  UNL1        0.0000
     22 C          -0.6098    0.3678   -1.8093 C.ar    1  UNL1        0.0000
     23 C          -1.0334   -3.9108   -0.9036 C.3     1  UNL1        0.0000
     24 C          -1.6769    1.3556    0.5669 C.3     1  UNL1        0.0000
     25 C           1.1275    1.0486   -1.1140 C.3     1  UNL1        0.0000
     26 C          -1.2395    0.4996    0.4330 C.3     1  UNL1        0.0000
     27 C          -2.4995   -0.2629    0.1357 C.3     1  UNL1        0.0000
     28 C           1.8897   -0.7319    1.9054 C.3     1  UNL1        0.0000
     29 C           0.8805    0.5609    2.3078 C.3     1  UNL1        0.0000
     30 C          -1.6732   -1.6133    0.4523 C.3     1  UNL1        0.0000
     31 C          -0.3661    0.7649   -1.7033 C.ar    1  UNL1        0.0000
     32 N          -1.7530    2.7943    1.1007 N.ar    1  UNL1        0.0000
     33 N           0.4443    1.9090    2.0761 N.ar    1  UNL1        0.0000
     34 C          -0.1473    0.0300    1.2914 C.ar    1  UNL1        0.0000
     35 C           0.0498    1.1839   -0.0737 C.ar    1  UNL1        0.0000
     36 H          -2.1152    0.1760    2.9018 H       1  UNL1        0.0000
     37 H          -0.2079   -3.3383    1.6942 H       1  UNL1        0.0000
     38 H          -0.1465    1.5336    3.1149 H       1  UNL1        0.0000
     39 H          -0.2188   -2.5122   -2.4187 H       1  UNL1        0.0000
     40 H          -2.5135   -0.8120    1.3950 H       1  UNL1        0.0000
     41 H           2.2205   -2.1586    1.9643 H       1  UNL1        0.0000
     42 H          -2.5520   -0.4084   -1.2725 H       1  UNL1        0.0000
     43 H          -1.2635    2.4365   -3.7955 H       1  UNL1        0.0000
     44 H           2.2285    1.7133   -0.6622 H       1  UNL1        0.0000
     45 H           2.1455   -1.5033    0.1611 H       1  UNL1        0.0000
     46 H          -2.4671   -1.4305    2.4203 H       1  UNL1        0.0000
     47 H           0.3869   -1.2181   -3.6590 H       1  UNL1        0.0000
     48 H           3.6953   -0.4399   -2.0523 H       1  UNL1        0.0000
     49 H          -0.9615    0.7992    3.2601 H       1  UNL1        0.0000
     50 H          -0.9053   -1.9477    1.4870 H       1  UNL1        0.0000
     51 H          -1.8869   -1.5824   -1.3996 H       1  UNL1        0.0000
     52 H          -1.2728    3.2805   -0.4902 H       1  UNL1        0.0000
     53 H           0.2135   -3.5451   -1.6784 H       1  UNL1        0.0000
     54 H          -1.2321    2.1507   -0.4182 H       1  UNL1        0.0000
     55 H           0.7891   -1.4665   -0.7656 H       1  UNL1        0.0000
     56 H           2.8466    1.1462    1.0297 H       1  UNL1        0.0000
     57 H           0.9726   -2.1850   -3.0286 H       1  UNL1        0.0000
     58 H          -1.7293   -1.8062   -3.1238 H       1  UNL1        0.0000
     59 H           0.9760   -0.7756    2.1727 H       1  UNL1        0.0000
     60 H          -2.5229    2.2633   -0.1095 H       1  UNL1        0.0000
     61 H           0.7779    0.9604   -3.1964 H       1  UNL1        0.0000
     62 H           1.8748    1.9403   -3.2720 H       1  UNL1        0.0000
     63 H           1.2084    3.2189   -0.1901 H       1  UNL1        0.0000
     64 H           3.2420   -1.0276   -0.1259 H       1  UNL1        0.0000
     65 H          -1.3308   -3.1534    1.8886 H       1  UNL1        0.0000
     66 H          -1.6942    1.1642    2.3822 H       1  UNL1        0.0000
     67 H           2.3335    1.9164    1.7275 H       1  UNL1        0.0000
     68 EU          1.2636    1.8390    0.3070 Eu      1  UNL1        0.0000
@<TRIPOS>BOND
     1     1     2    2
     2     2     3   am
     3     3     4    1
     4     3     5    1
     5     5     6    1
     6     6     7    1
     7     2     8    1
     8     8     9   ar
     9     9    10   ar
    10     8    11   ar
    11    11    12   ar
    12    12    13   ar
    13    10    13   ar
    14    13    14   ar
    15    14    15   ar
    16    15    16   ar
    17    16    17   ar
    18    12    17   ar
    19    17    18   ar
    20    18    19   ar
    21    19    20    1
    22    20    21   ar
    23    21    22   ar
    24    22    23    1
    25    23    24    1
    26    23    25    1
    27    23    26    1
    28    26    27    1
    29    27    28    1
    30    28    29    1
    31    28    30    1
    32    22    31   ar
    33    28    31    1
    34    31    32   ar
    35    32    33   ar
    36    20    33   ar
    37    19    34   ar
    38    34    35   ar
    39    16    35   ar
    40     4    36    1
    41     4    37    1
    42     4    38    1
    43     5    39    1
    44     5    40    1
    45     6    41    1
    46     6    42    1
    47     7    43    1
    48     7    44    1
    49     7    45    1
    50     9    46    1
    51    10    47    1
    52    14    48    1
    53    15    49    1
    54    24    50    1
    55    24    51    1
    56    24    52    1
    57    25    53    1
    58    25    54    1
    59    25    55    1
    60    26    56    1
    61    26    57    1
    62    27    58    1
    63    27    59    1
    64    29    60    1
    65    29    61    1
    66    29    62    1
    67    30    63    1
    68    30    64    1
    69    30    65    1
    70    34    66    1
    71    35    67    1
    72    68     1    1
    73    68    33    1
    74    68    18    1
    75    68    11    1
@<TRIPOS>MOLECULE
*****
 68 75 0 0 0
SMALL
GASTEIGER

@<TRIPOS>ATOM
      1 O           1.2612   -0.3804   -1.0067 O.2     1  UNL1        0.0000
      2 C          -1.1927   -0.5387   -0.6190 C.2     1  UNL1        0.0000
      3 N          -1.1525   -0.9227    2.1986 N.am    1  UNL1        0.0000
      4 C          -1.2388   -0.6610    2.1961 C.3     1  UNL1        0.0000
      5 C          -0.8803   -0.8073    2.4627 C.3     1  UNL1        0.0000
      6 C           1.4356   -2.0642    2.8409 C.3     1  UNL1        0.0000
      7 C          -1.9554   -3.1365    0.2013 C.3     1  UNL1        0.0000
      8 C          -0.2489    2.4415    0.6302 C.ar    1  UNL1        0.0000
      9 C           1.6409    0.7763    1.0230 C.ar    1  UNL1        0.0000
     10 C          -0.0795   -0.0925   -3.8951 C.ar    1  UNL1        0.0000
     11 N           0.0030    2.6803   -0.1391 N.ar    1  UNL1        0.0000
     12 C           0.7221    2.2595   -2.0048 C.ar    1  UNL1        0.0000
     13 C          -1.6570    0.7643   -2.8628 C.ar    1  UNL1        0.0000
     14 C           0.3881   -2.3908    0.1227 C.ar    1  UNL1        0.0000
     15 C           0.3762   -2.3562    0.1523 C.ar    1  UNL1        0.0000
     16 C           0.4292   -0.8528   -2.2493 C.ar    1  UNL1        0.0000
     17 C           1.6462   -0.6361   -2.2335 C.ar    1  UNL1        0.0000
     18 N           0.8225   -0.5856    0.8159 N.ar    1  UNL1        0.0000
     19 C           0.1561   -0.9806    0.9962 C.ar    1  UNL1        0.0000
     20 C          -0.0006   -1.0527    1.1204 C.ar    1  UNL1        0.0000
     21 N          -1.7878    0.6746   -0.9891 N.ar    1  UNL1        0.0000
     22 C          -0.6098    0.3678   -1.8093 C.ar    1  UNL1        0.0000
     23 C          -1.0334   -3.9108   -0.9036 C.3     1  UNL1        0.0000
     24 C          -1.6769    1.3556    0.5669 C.3     1  UNL1        0.0000
     25 C           1.1275    1.0486   -1.1140 C.3     1  UNL1        0.0000
     26 C          -1.2395    0.4996    0.4330 C.3     1  UNL1        0.0000
     27 C          -2.4995   -0.2629    0.1357 C.3     1  UNL1        0.0000
     28 C           1.8897   -0.7319    1.9054 C.3     1  UNL1        0.0000
     29 C           0.8805    0.5609    2.3078 C.3     1  UNL1        0.0000
     30 C          -1.6732   -1.6133    0.4523 C.3     1  UNL1        0.0000
     31 C          -0.3661    0.7649   -1.7033 C.ar    1  UNL1        0.0000
     32 N          -1.7530    2.7943    1.1007 N.ar    1  UNL1        0.0000
     33 N           0.4443    1.9090    2.0761 N.ar    1  UNL1        0.0000
     34 C          -0.1473    0.0300    1.2914 C.ar    1  UNL1        0.0000
     35 C           0.0498    1.1839   -0.0737 C.ar    1  UNL1        0.0000
     36 H          -2.1152    0.1760    2.9018 H       1  UNL1        0.0000
     37 H          -0.2079   -3.3383    1.6942 H       1  UNL1        0.0000
     38 H          -0.1465    1.5336    3.1149 H       1  UNL1        0.0000
     39 H          -0.2188   -2.5122   -2.4187 H       1  UNL1        0.0000
     40 H          -2.5135   -0.8120    1.3950 H       1  UNL1        0.0000
     41 H           2.2205   -2.1586    1.9643 H       1  UNL1        0.0000
     42 H          -2.5520   -0.4084   -1.2725 H       1  UNL1        0.0000
     43 H          -1.2635    2.4365   -3.7955 H       1  UNL1        0.0000
     44 H           2.2285    1.7133   -0.6622 H       1  UNL1        0.0000
     45 H           2.1455   -1.5033    0.1611 H       1  UNL1        0.0000
     46 H          -2.4671   -1.4305    2.4203 H       1  UNL1        0.0000
     47 H           0.3869   -1.2181   -3.6590 H       1  UNL1        0.0000
     48 H           3.6953   -0.4399   -2.0523 H       1  UNL1        0.0000
     49 H          -0.9615    0.7992    3.2601 H       1  UNL1        0.0000
     50 H          -0.9053   -1.9477    1.4870 H       1  UNL1        0.0000
     51 H          -1.8869   -1.5824   -1.3996 H       1  UNL1        0.0000
     52 H          -1.2728    3.2805   -0.4902 H       1  UNL1        0.0000
     53 H           0.2135   -3.5451   -1.6784 H       1  UNL1        0.0000
     54 H          -1.2321    2.1507   -0.4182 H       1  UNL1        0.0000
     55 H           0.7891   -1.4665   -0.7656 H       1  UNL1        0.0000
     56 H           2.8466    1.1462    1.0297 H       1  UNL1        0.0000
     57 H           0.9726   -2.1850   -3.0286 H       1  UNL1        0.0000
     58 H          -1.7293   -1.8062   -3.1238 H       1  UNL1        0.0000
     59 H           0.9760   -0.7756    2.1727 H       1  UNL1        0.0000
     60 H          -2.5229    2.2633   -0.1095 H       1  UNL1        0.0000
     61 H           0.7779    0.9604   -3.1964 H       1  UNL1        0.0000
     62 H           1.8748    1.9403   -3.2720 H       1  UNL1        0.0000
     63 H           1.2084    3.2189   -0.1901 H       1  UNL1        0.0000
     64 H           3.2420   -1.0276   -0.1259 H       1  UNL1        0.0000
     65 H          -1.3308   -3.1534    1.8886 H       1  UNL1        0.0000
     66 H          -1.6942    1.1642    2.3822 H       1  UNL1        0.0000
     67 H           2.3335    1.9164    1.7275 H       1  UNL1        0.0000
     68 EU          1.2636    1.8390    0.3070 Eu      1  UNL1        0.0000
@<TRIPOS>BOND
     1     1     2    2
     2     2     3   am
     3     3     4    1
     4     3     5    1
     5     5     6    1
     6     6     7    1
     7     2     8    1
     8     8     9   ar
     9     9    10   ar
    10     8    11   ar
    11    11    12   ar
    12    12    13   ar
    13    10    13   ar
    14    13    14   ar
    15    14    15   ar
    16    15    16   ar
    17    16    17   ar
    18    12    17   ar
    19    17    18   ar
    20    18    19   ar
    21    19    20    1
    22    20    21   ar
    23    21    22   ar
    24    22    23    1
    25    23    24    1
    26    23    25    1
    27    23    26    1
    28    26    27    1
    29    27    28    1
    30    28    29    1
    31    28    30    1
    32    22    31   ar
    33    28    31    1
    34    31    32   ar
    35    32    33   ar
    36    20    33   ar
    37    19    34   ar
    38    34    35   ar
    39    16    35   ar
    40     4    36    1
    41     4    37    1
    42     4    38    1
    43     5    39    1
    44     5    40    1
    45     6    41    1
    46     6    42    1
    47     7    43    1
    48     7    44    1
    49     7    45    1
    50     9    46    1
    51    10    47    1
    52    14    48    1
    53    15    49    1
    54    24    50    1
    55    24    51    1
    56    24    52    1
    57    25    53    1
    58    25    54    1
    59    25    55    1
    60    26    56    1
    61    26    57    1
    62    27    58    1
    63    27    59    1
    64    29    60    1
    65    29    61    1
    66    29    62    1
    67    30    63    1
    68    30    64    1
    69    30    65    1
    70    34    66    1
    71    35    67    1
    72    68     1    1
    73    68    33    1
    74    68    18    1
    75    68    11    1
@<TRIPOS>MOLECULE
*****
 68 75 0 0 0
SMALL
GASTEIGER

@<TRIPOS>ATOM
      1 O           1.2612   -0.3804   -1.0067 O.2     1  UNL1        0.0000
      2 C          -1.1927   -0.5387   -0.6190 C.2     1  UNL1        0.0000
      3 N          -1.1525   -0.9227    2.1986 N.am    1  UNL1        0.0000
      4 C          -1.2388   -0.6610    2.1961 C.3     1  UNL1        0.0000
      5 C          -0.8803   -0.8073    2.4627 C.3     1  UNL1        0.0000
      6 C           1.4356   -2.0642    2.8409 C.3     1  UNL1        0.0000
      7 C          -1.9554   -3.1365    0.2013 C.3     1  UNL1        0.0000
      8 C          -0.2489    2.4415    0.6302 C.ar    1  UNL1        0.0000
      9 C           1.6409    0.7763    1.0230 C.ar    1  UNL1        0.0000
     10 C          -0.0795   -0.0925   -3.8951 C.ar    1  UNL1        0.0000
     11 N           0.0030    2.6803   -0.1391 N.ar    1  UNL1        0.0000
     12 C           0.7221    2.2595   -2.0048 C.ar    1  UNL1        0.0000
     13 C          -1.6570    0.7643   -2.8628 C.ar    1  UNL1        0.0000
     14 C           0.3881   -2.3908    0.1227 C.ar    1  UNL1        0.0000
     15 C           0.3762   -2.3562    0.1523 C.ar    1  UNL1        0.0000
     16 C           0.4292   -0.8528   -2.2493 C.ar    1  UNL1        0.0000
     17 C           1.6462   -0.6361   -2.2335 C.ar    1  UNL1        0.0000
     18 N           0.8225   -0.5856    0.8159 N.ar    1  UNL1        0.0000
     19 C           0.1561   -0.9806    0.9962 C.ar    1  UNL1        0.0000
     20 C          -0.0006   -1.0527    1.1204 C.ar    1  UNL1        0.0000
     21 N          -1.7878    0.6746   -0.9891 N.ar    1  UNL1        0.0000
     22 C          -0.6098    0.3678   -1.8093 C.ar    1  UNL1        0.0000
     23 C          -1.0334   -3.9108   -0.9036 C.3     1  UNL1        0.0000
     24 C          -1.6769    1.3556    0.5669 C.3     1  UNL1        0.0000
     25 C           1.1275    1.0486   -1.1140 C.3     1  UNL1        0.0000
     26 C          -1.2395    0.4996    0.4330 C.3     1  UNL1        0.0000
     27 C          -2.4995   -0.2629    0.1357 C.3     1  UNL1        0.0000
     28 C           1.8897   -0.7319    1.9054 C.3     1  UNL1        0.0000
     29 C           0.8805    0.5609    2.3078 C.3     1  UNL1        0.0000
     30 C          -1.6732   -1.6133    0.4523 C.3     1  UNL1        0.0000
     31 C          -0.3661    0.7649   -1.7033 C.ar    1  UNL1        0.0000
     32 N          -1.7530    2.7943    1.1007 N.ar    1  UNL1        0.0000
     33 N           0.4443    1.9090    2.0761 N.ar    1  UNL1        0.0000
     34 C          -0.1473    0.0300    1.2914 C.ar    1  UNL1        0.0000
     35 C           0.0498    1.1839   -0.0737 C.ar    1  UNL1        0.0000
     36 H          -2.1152    0.1760    2.9018 H       1  UNL1        0.0000
     37 H          -0.2079   -3.3383    1.6942 H       1  UNL1        0.0000
     38 H          -0.1465    1.5336    3.1149 H       1  UNL1        0.0000
     39 H          -0.2188   -2.5122   -2.4187 H       1  UNL1        0.0000
     40 H          -2.5135   -0.8120    1.3950 H       1  UNL1        0.0000
     41 H           2.2205   -2.1586    1.9643 H       1  UNL1        0.0000
     42 H          -2.5520   -0.4084   -1.2725 H       1  UNL1        0.0000
     43 H          -1.2635    2.4365   -3.7955 H       1  UNL1        0.0000
     44 H           2.2285    1.7133   -0.6622 H       1  UNL1        0.0000
     45 H           2.1455   -1.5033    0.1611 H       1  UNL1        0.0000
     46 H          -2.4671   -1.4305    2.4203 H       1  UNL1        0.0000
     47 H           0.3869   -1.2181   -3.6590 H       1  UNL1        0.0000
     48 H           3.6953   -0.4399   -2.0523 H       1  UNL1        0.0000
     49 H          -0.9615    0.7992    3.2601 H       1  UNL1        0.0000
     50 H          -0.9053   -1.9477    1.4870 H       1  UNL1        0.0000
     51 H          -1.8869   -1.5824   -1.3996 H       1  UNL1        0.0000
     52 H          -1.2728    3.2805   -0.4902 H       1  UNL1        0.0000
     53 H           0.2135   -3.5451   -1.6784 H       1  UNL1        0.0000
     54 H          -1.2321    2.1507   -0.4182 H       1  UNL1        0.0000
     55 H           0.7891   -1.4665   -0.7656 H       1  UNL1        0.0000
     56 H           2.8466    1.1462    1.0297 H       1  UNL1        0.0000
     57 H           0.9726   -2.1850   -3.0286 H       1  UNL1        0.0000
     58 H          -1.7293   -1.8062   -3.1238 H       1  UNL1        0.0000
     59 H           0.9760   -0.7756    2.1727 H       1  UNL1        0.0000
     60 H          -2.5229    2.2633   -0.1095 H       1  UNL1        0.0000
     61 H           0.7779    0.9604   -3.1964 H       1  UNL1        0.0000
     62 H           1.8748    1.9403   -3.2720 H       1  UNL1        0.0000
     63 H           1.2084    3.2189   -0.1901 H       1  UNL1        0.0000
     64 H           3.2420   -1.0276   -0.1259 H       1  UNL1        0.0000
     65 H          -1.3308   -3.1534    1.8886 H       1  UNL1        0.0000
     66 H          -1.6942    1.1642    2.3822 H       1  UNL1        0.0000
     67 H           2.3335    1.9164    1.7275 H       1  UNL1        0.0000
     68 EU          1.2636    1.8390    0.3070 Eu      1  UNL1        0.0000
@<TRIPOS>BOND
     1     1     2    2
     2     2     3   am
     3     3     4    1
     4     3     5    1
     5     5     6    1
     6     6     7    1
     7     2     8    1
     8     8     9   ar
     9     9    10   ar
    10     8    11   ar
    11    11    12   ar
    12    12    13   ar
    13    10    13   ar
    14    13    14   ar
    15    14    15   ar
    16    15    16   ar
    17    16    17   ar
    18    12    17   ar
    19    17    18   ar
    20    18    19   ar
    21    19    20    1
    22    20    21   ar
    23    21    22   ar
    24    22    23    1
    25    23    24    1
    26    23    25    1
    27    23    26    1
    28    26    27    1
    29    27    28    1
    30    28    29    1
    31    28    30    1
    32    22    31   ar
    33    28    31    1
    34    31    32   ar
    35    32    33   ar
    36    20    33   ar
    37    19    34   ar
    38    34    35   ar
    39    16    35   ar
    40     4    36    1
    41     4    37    1
    42     4    38    1
    43     5    39    1
    44     5    40    1
    45     6    41    1
    46     6    42    1
    47     7    43    1
    48     7    44    1
    49     7    45    1
    50     9    46    1
    51    10    47    1
    52    14    48    1
    53    15    49    1
    54    24    50    1
    55    24    51    1
    56    24    52    1
    57    25    53    1
    58    25    54    1
    59    25    55    1
    60    26    56    1
    61    26    57    1
    62    27    58    1
    63    27    59    1
    64    29    60    1
    65    29    61    1
    66    29    62    1
    67    30    63    1
    68    30    64    1
    69    30    65    1
    70    34    66    1
    71    35    67    1
    72    68     1    1
    73    68    33    1
    74    68    18    1
    75    68    11    1
@<TRIPOS>MOLECULE
*****
 68 75 0 0 0
SMALL
GASTEIGER

@<TRIPOS>ATOM
      1 O           1.2612   -0.3804   -1.0067 O.2     1  UNL1        0.0000
      2 C          -1.1927   -0.5387   -0.6190 C.2     1  UNL1        0.0000
      3 N          -1.1525   -0.9227    2.1986 N.am    1  UNL1        0.0000
      4 C          -1.2388   -0.6610    2.1961 C.3     1  UNL1        0.0000
      5 C          -0.8803   -0.8073    2.4627 C.3     1  UNL1        0.0000
      6 C           1.4356   -2.0642    2.8409 C.3     1  UNL1        0.0000
      7 C          -1.9554   -3.1365    0.2013 C.3     1  UNL1        0.0000
      8 C          -0.2489    2.4415    0.6302 C.ar    1  UNL1        0.0000
      9 C           1.6409    0.7763    1.0230 C.ar    1  UNL1        0.0000
     10 C          -0.0795   -0.0925   -3.8951 C.ar    1  UNL1        0.0000
     11 N           0.0030    2.6803   -0.1391 N.ar    1  UNL1        0.0000
     12 C           0.7221    2.2595   -2.0048 C.ar    1  UNL1        0.0000
     13 C          -1.6570    0.7643   -2.8628 C.ar    1  UNL1        0.0000
     14 C           0.3881   -2.3908    0.1227 C.ar    1  UNL1        0.0000
     15 C           0.3762   -2.3562    0.1523 C.ar    1  UNL1        0.0000
     16 C           0.4292   -0.8528   -2.2493 C.ar    1  UNL1        0.0000
     17 C           1.6462   -0.6361   -2.2335 C.ar    1  UNL1        0.0000
     18 N           0.8225   -0.5856    0.8159 N.ar    1  UNL1        0.0000
     19 C           0.1561   -0.9806    0.9962 C.ar    1  UNL1        0.0000
     20 C          -0.0006   -1.0527    1.1204 C.ar    1  UNL1        0.0000
     21 N          -1.7878    0.6746   -0.9891 N.ar    1  UNL1        0.0000
     22 C          -0.6098    0.3678   -1.8093 C.ar    1  UNL1        0.0000
     23 C          -1.0334   -3.9108   -0.9036 C.3     1  UNL1        0.0000
     24 C          -1.6769    1.3556    0.5669 C.3     1  UNL1        0.0000
     25 C           1.1275    1.0486   -1.1140 C.3     1  UNL1        0.0000
     26 C          -1.2395    0.4996    0.4330 C.3     1  UNL1        0.0000
     27 C          -2.4995   -0.2629    0.1357 C.3     1  UNL1        0.0000
     28 C           1.8897   -0.7319    1.9054 C.3     1  UNL1        0.0000
     29 C           0.8805    0.5609    2.3078 C.3     1  UNL1        0.0000
     30 C          -1.6732   -1.6133    0.4523 C.3     1  UNL1        0.0000
     31 C          -0.3661    0.7649   -1.7033 C.ar    1  UNL1        0.0000
     32 N          -1.7530    2.7943    1.1007 N.ar    1  UNL1        0.0000
     33 N           0.4443    1.9090    2.0761 N.ar    1  UNL1        0.0000
     34 C          -0.1473    0.0300    1.2914 C.ar    1  UNL1        0.0000
     35 C           0.0498    1.1839   -0.0737 C.ar    1  UNL1        0.0000
     36 H          -2.1152    0.1760    2.9018 H       1  UNL1        0.0000
     37 H          -0.2079   -3.3383    1.6942 H       1  UNL1        0.0000
     38 H          -0.1465    1.5336    3.1149 H       1  UNL1        0.0000
     39 H          -0.2188   -2.5122   -2.4187 H       1  UNL1        0.0000
     40 H          -2.5135   -0.8120    1.3950 H       1  UNL1        0.0000
     41 H           2.2205   -2.1586    1.9643 H       1  UNL1        0.0000
     42 H          -2.5520   -0.4084   -1.2725 H       1  UNL1        0.0000
     43 H          -1.2635    2.4365   -3.7955 H       1  UNL1        0.0000
     44 H           2.2285    1.7133   -0.6622 H       1  UNL1        0.0000
     45 H           2.1455   -1.5033    0.1611 H       1  UNL1        0.0000
     46 H          -2.4671   -1.4305    2.4203 H       1  UNL1        0.0000
     47 H           0.3869   -1.2181   -3.6590 H       1  UNL1        0.0000
     48 H           3.6953   -0.4399   -2.0523 H       1  UNL1        0.0000
     49 H          -0.9615    0.7992    3.2601 H       1  UNL1        0.0000
     50 H          -0.9053   -1.9477    1.4870 H       1  UNL1        0.0000
     51 H          -1.8869   -1.5824   -1.3996 H       1  UNL1        0.0000
     52 H          -1.2728    3.2805   -0.4902 H       1  UNL1        0.0000
     53 H           0.2135   -3.5451   -1.6784 H       1  UNL1        0.0000
     54 H          -1.2321    2.1507   -0.4182 H       1  UNL1        0.0000
     55 H           0.7891   -1.4665   -0.7656 H       1  UNL1        0.0000
     56 H           2.8466    1.1462    1.0297 H       1  UNL1        0.0000
     57 H           0.9726   -2.1850   -3.0286 H       1  UNL1        0.0000
     58 H          -1.7293   -1.8062   -3.1238 H       1  UNL1        0.0000
     59 H           0.9760   -0.7756    2.1727 H       1  UNL1        0.0000
     60 H          -2.5229    2.2633   -0.1095 H       1  UNL1        0.0000
     61 H           0.7779    0.9604   -3.1964 H       1  UNL1        0.0000
     62 H           1.8748    1.9403   -3.2720 H       1  UNL1        0.0000
     63 H           1.2084    3.2189   -0.1901 H       1  UNL1        0.0000
     64 H           3.2420   -1.0276   -0.1259 H       1  UNL1        0.0000
     65 H          -1.3308   -3.1534    1.8886 H       1  UNL1        0.0000
     66 H          -1.6942    1.1642    2.3822 H       1  UNL1        0.0000
     67 H           2.3335    1.9164    1.7275 H       1  UNL1        0.0000
     68 EU          1.2636    1.8390    0.3070 Eu      1  UNL1        0.0000
@<TRIPOS>BOND
     1     1     2    2
     2     2     3   am
     3     3     4    1
     4     3     5    1
     5     5     6    1
     6     6     7    1
     7     2     8    1
     8     8     9   ar
     9     9    10   ar
    10     8    11   ar
    11    11    12   ar
    12    12    13   ar
    13    10    13   ar
    14    13    14   ar
    15    14    15   ar
    16    15    16   ar
    17    16    17   ar
    18    12    17   ar
    19    17    18   ar
    20    18    19   ar
    21    19    20    1
    22    20    21   ar
    23    21    22   ar
    24    22    23    1
    25    23    24    1
    26    23    25    1
    27    23    26    1
    28    26    27    1
    29    27    28    1
    30    28    29    1
    31    28    30    1
    32    22    31   ar
    33    28    31    1
    34    31    32   ar
    35    32    33   ar
    36    20    33   ar
    37    19    34   ar
    38    34    35   ar
    39    16    35   ar
    40     4    36    1
    41     4    37    1
    42     4    38    1
    43     5    39    1
    44     5    40    1
    45     6    41    1
    46     6    42    1
    47     7    43    1
    48     7    44    1
    49     7    45    1
    50     9    46    1
    51    10    47    1
    52    14    48    1
    53    15    49    1
    54    24    50    1
    55    24    51    1
    56    24    52    1
    57    25    53    1
    58    25    54    1
    59    25    55    1
    60    26    56    1
    61    26    57    1
    62    27    58    1
    63    27    59    1
    64    29    60    1
    65    29    61    1
    66    29    62    1
    67    30    63    1
    68    30    64    1
    69    30    65    1
    70    34    66    1
    71    35    67    1
    72    68     1    1
    73    68    33    1
    74    68    18    1
    75    68    11    1
@<TRIPOS>MOLECULE
*****
 68 75 0 0 0
SMALL
GASTEIGER

@<TRIPOS>ATOM
      1 O           1.2612   -0.3804   -1.0067 O.2     1  UNL1        0.0000
      2 C          -1.1927   -0.5387   -0.6190 C.2     1  UNL1        0.0000
      3 N          -1.1525   -0.9227    2.1986 N.am    1  UNL1        0.0000
      4 C          -1.2388   -0.6610    2.1961 C.3     1  UNL1        0.0000
      5 C          -0.8803   -0.8073    2.4627 C.3     1  UNL1        0.0000
      6 C           1.4356   -2.0642    2.8409 C.3     1  UNL1        0.0000
      7 C          -1.9554   -3.1365    0.2013 C.3     1  UNL1        0.0000
      8 C          -0.2489    2.4415    0.6302 C.ar    1  UNL1        0.0000
      9 C           1.6409    0.7763    1.0230 C.ar    1  UNL1        0.0000
     10 C          -0.0795   -0.0925   -3.8951 C.ar    1  UNL1        0.0000
     11 N           0.0030    2.6803   -0.1391 N.ar    1  UNL1        0.0000
     12 C           0.7221    2.2595   -2.0048 C.ar    1  UNL1        0.0000
     13 C          -1.6570    0.7643   -2.8628 C.ar    1  UNL1        0.0000
     14 C           0.3881   -2.3908    0.1227 C.ar    1  UNL1        0.0000
     15 C           0.3762   -2.3562    0.1523 C.ar    1  UNL1        0.0000
     16 C           0.4292   -0.8528   -2.2493 C.ar    1  UNL1        0.0000
     17 C           1.6462   -0.6361   -2.2335 C.ar    1  UNL1        0.0000
     18 N           0.8225   -0.5856    0.8159 N.ar    1  UNL1        0.0000
     19 C           0.1561   -0.9806    0.9962 C.ar    1  UNL1        0.0000
     20 C          -0.0006   -1.0527    1.1204 C.ar    1  UNL1        0.0000
     21 N          -1.7878    0.6746   -0.9891 N.ar    1  UNL1        0.0000
     22 C          -0.6098    0.3678   -1.8093 C.ar    1  UNL1        0.0000
     23 C          -1.0334   -3.9108   -0.9036 C.3     1  UNL1        0.0000
     24 C          -1.6769    1.3556    0.5669 C.3     1  UNL1        0.0000
     25 C           1.1275    1.0486   -1.1140 C.3     1  UNL1        0.0000
     26 C          -1.2395    0.4996    0.4330 C.3     1  UNL1        0.0000
     27 C          -2.4995   -0.2629    0.1357 C.3     1  UNL1        0.0000
     28 C           1.8897   -0.7319    1.9054 C.3     1  UNL1        0.0000
     29 C           0.8805    0.5609    2.3078 C.3     1  UNL1        0.0000
     30 C          -1.6732   -1.6133    0.4523 C.3     1  UNL1        0.0000
     31 C          -0.3661    0.7649   -1.7033 C.ar    1  UNL1        0.0000
     32 N          -1.7530    2.7943    1.1007 N.ar    1  UNL1        0.0000
     33 N           0.4443    1.9090    2.0761 N.ar    1  UNL1        0.0000
     34 C          -0.1473    0.0300    1.2914 C.ar    1  UNL1        0.0000
     35 C           0.0498    1.1839   -0.0737 C.ar    1  UNL1        0.0000
     36 H          -2.1152    0.1760    2.9018 H       1  UNL1        0.0000
     37 H          -0.2079   -3.3383    1.6942 H       1  UNL1        0.0000
     38 H          -0.1465    1.5336    3.1149 H       1  UNL1        0.0000
     39 H          -0.2188   -2.5122   -2.4187 H       1  UNL1        0.0000
     40 H          -2.5135   -0.8120    1.3950 H       1  UNL1        0.0000
     41 H           2.2205   -2.1586    1.9643 H       1  UNL1        0.0000
     42 H          -2.5520   -0.4084   -1.2725 H       1  UNL1        0.0000
     43 H          -1.2635    2.4365   -3.7955 H       1  UNL1        0.0000
     44 H           2.2285    1.7133   -0.6622 H       1  UNL1        0.0000
     45 H           2.1455   -1.5033    0.1611 H       1  UNL1        0.0000
     46 H          -2.4671   -1.4305    2.4203 H       1  UNL1        0.0000
     47 H           0.3869   -1.2181   -3.6590 H       1  UNL1        0.0000
     48 H           3.6953   -0.4399   -2.0523 H       1  UNL1        0.0000
     49 H          -0.9615    0.7992    3.2601 H       1  UNL1        0.0000
     50 H          -0.9053   -1.9477    1.4870 H       1  UNL1        0.0000
     51 H          -1.8869   -1.5824   -1.3996 H       1  UNL1        0.0000
     52 H          -1.2728    3.2805   -0.4902 H       1  UNL1        0.0000
     53 H           0.2135   -3.5451   -1.6784 H       1  UNL1        0.0000
     54 H          -1.2321    2.1507   -0.4182 H       1  UNL1        0.0000
     55 H           0.7891   -1.4665   -0.7656 H       1  UNL1        0.0000
     56 H           2.8466    1.1462    1.0297 H       1  UNL1        0.0000
     57 H           0.9726   -2.1850   -3.0286 H       1  UNL1        0.0000
     58 H          -1.7293   -1.8062   -3.1238 H       1  UNL1        0.0000
     59 H           0.9760   -0.7756    2.1727 H       1  UNL1        0.0000
     60 H          -2.5229    2.2633   -0.1095 H       1  UNL1        0.0000
     61 H           0.7779    0.9604   -3.1964 H       1  UNL1        0.0000
     62 H           1.8748    1.9403   -3.2720 H       1  UNL1        0.0000
     63 H           1.2084    3.2189   -0.1901 H       1  UNL1        0.0000
     64 H           3.2420   -1.0276   -0.1259 H       1  UNL1        0.0000
     65 H          -1.3308   -3.1534    1.8886 H       1  UNL1        0.0000
     66 H          -1.6942    1.1642    2.3822 H       1  UNL1        0.0000
     67 H           2.3335    1.9164    1.7275 H       1  UNL1        0.0000
     68 EU          1.2636    1.8390    0.3070 Eu      1  UNL1        0.0000
@<TRIPOS>BOND
     1     1     2    2
     2     2     3   am
     3     3     4    1
     4     3     5    1
     5     5     6    1
     6     6     7    1
     7     2     8    1
     8     8     9   ar
     9     9    10   ar
    10     8    11   ar
    11    11    12   ar
    12    12    13   ar
    13    10    13   ar
    14    13    14   ar
    15    14    15   ar
    16    15    16   ar
    17    16    17   ar
    18    12    17   ar
    19    17    18   ar
    20    18    19   ar
    21    19    20    1
    22    20    21   ar
    23    21    22   ar
    24    22    23    1
    25    23    24    1
    26    23    25    1
    27    23    26    1
    28    26    27    1
    29    27    28    1
    30    28    29    1
    31    28    30    1
    32    22    31   ar
    33    28    31    1
    34    31    32   ar
    35    32    33   ar
    36    20    33   ar
    37    19    34   ar
    38    34    35   ar
    39    16    35   ar
    40     4    36    1
    41     4    37    1
    42     4    38    1
    43     5    39    1
    44     5    40    1
    45     6    41    1
    46     6    42    1
    47     7    43    1
    48     7    44    1
    49     7    45    1
    50     9    46    1
    51    10    47    1
    52    14    48    1
    53    15    49    1
    54    24    50    1
    55    24    51    1
    56    24    52    1
    57    25    53    1
    58    25    54    1
    59    25    55    1
    60    26    56    1
    61    26    57    1
    62    27    58    1
    63    27    59    1
    64    29    60    1
    65    29    61    1
    66    29    62    1
    67    30    63    1
    68    30    64    1
    69    30    65    1
    70    34    66    1
    71    35    67    1
    72    68     1    1
    73    68    33    1
    74    68    18    1
    75    68    11    1
@<TRIPOS>MOLECULE
*****
 68 75 0 0 0
SMALL
GASTEIGER

@<TRIPOS>ATOM
      1 O           1.2612   -0.3804   -1.0067 O.2     1  UNL1        0.0000
      2 C          -1.1927   -0.5387   -0.6190 C.2     1  UNL1        0.0000
      3 N          -1.1525   -0.9227    2.1986 N.am    1  UNL1        0.0000
      4 C          -1.2388   -0.6610    2.1961 C.3     1  UNL1        0.0000
      5 C          -0.8803   -0.8073    2.4627 C.3     1  UNL1        0.0000
      6 C           1.4356   -2.0642    2.8409 C.3     1  UNL1        0.0000
      7 C          -1.9554   -3.1365    0.2013 C.3     1  UNL1        0.0000
      8 C          -0.2489    2.4415    0.6302 C.ar    1  UNL1        0.0000
      9 C           1.6409    0.7763    1.0230 C.ar    1  UNL1        0.0000
     10 C          -0.0795   -0.0925   -3.8951 C.ar    1  UNL1        0.0000
     11 N           0.0030    2.6803   -0.1391 N.ar    1  UNL1        0.0000
     12 C           0.7221    2.2595   -2.0048 C.ar    1  UNL1        0.0000
     13 C          -1.6570    0.7643   -2.8628 C.ar    1  UNL1        0.0000
     14 C           0.3881   -2.3908    0.1227 C.ar    1  UNL1        0.0000
     15 C           0.3762   -2.3562    0.1523 C.ar    1  UNL1        0.0000
     16 C           0.4292   -0.8528   -2.2493 C.ar    1  UNL1        0.0000
     17 C           1.6462   -0.6361   -2.2335 C.ar    1  UNL1        0.0000
     18 N           0.8225   -0.5856    0.8159 N.ar    1  UNL1        0.0000
     19 C           0.1561   -0.9806    0.9962 C.ar    1  UNL1        0.0000
     20 C          -0.0006   -1.0527    1.1204 C.ar    1  UNL1        0.0000
     21 N          -1.7878    0.6746   -0.9891 N.ar    1  UNL1        0.0000
     22 C          -0.6098    0.3678   -1.8093 C.ar    1  UNL1        0.0000
     23 C          -1.0334   -3.9108   -0.9036 C.3     1  UNL1        0.0000
     24 C          -1.6769    1.3556    0.5669 C.3     1  UNL1        0.0000
     25 C           1.1275    1.0486   -1.1140 C.3     1  UNL1        0.0000
     26 C          -1.2395    0.4996    0.4330 C.3     1  UNL1        0.0000
     27 C          -2.4995   -0.2629    0.1357 C.3     1  UNL1        0.0000
     28 C           1.8897   -0.7319    1.9054 C.3     1  UNL1        0.0000
     29 C           0.8805    0.5609    2.3078 C.3     1  UNL1        0.0000
     30 C          -1.6732   -1.6133    0.4523 C.3     1  UNL1        0.0000
     31 C          -0.3661    0.7649   -1.7033 C.ar    1  UNL1        0.0000
     32 N          -1.7530    2.7943    1.1007 N.ar    1  UNL1        0.0000
     33 N           0.4443    1.9090    2.0761 N.ar    1  UNL1        0.0000
     34 C          -0.1473    0.0300    1.2914 C.ar    1  UNL1        0.0000
     35 C           0.0498    1.1839   -0.0737 C.ar    1  UNL1        0.0000
     36 H          -2.1152    0.1760    2.9018 H       1  UNL1        0.0000
     37 H          -0.2079   -3.3383    1.6942 H       1  UNL1        0.0000
     38 H          -0.1465    1.5336    3.1149 H       1  UNL1        0.0000
     39 H          -0.2188   -2.5122   -2.4187 H       1  UNL1        0.0000
     40 H          -2.5135   -0.8120    1.3950 H       1  UNL1        0.0000
     41 H           2.2205   -2.1586    1.9643 H       1  UNL1        0.0000
     42 H          -2.5520   -0.4084   -1.2725 H       1  UNL1        0.0000
     43 H          -1.2635    2.4365   -3.7955 H       1  UNL1        0.0000
     44 H           2.2285    1.7133   -0.6622 H       1  UNL1        0.0000
     45 H           2.1455   -1.5033    0.1611 H       1  UNL1        0.0000
     46 H          -2.4671   -1.4305    2.4203 H       1  UNL1        0.0000
     47 H           0.3869   -1.2181   -3.6590 H       1  UNL1        0.0000
     48 H           3.6953   -0.4399   -2.0523 H       1  UNL1        0.0000
     49 H          -0.9615    0.7992    3.2601 H       1  UNL1        0.0000
     50 H          -0.9053   -1.9477    1.4870 H       1  UNL1        0.0000
     51 H          -1.8869   -1.5824   -1.3996 H       1  UNL1        0.0000
     52 H          -1.2728    3.2805   -0.4902 H       1  UNL1        0.0000
     53 H           0.2135   -3.5451   -1.6784 H       1  UNL1        0.0000
     54 H          -1.2321    2.1507   -0.4182 H       1  UNL1        0.0000
     55 H           0.7891   -1.4665   -0.7656 H       1  UNL1        0.0000
     56 H           2.8466    1.1462    1.0297 H       1  UNL1        0.0000
     57 H           0.9726   -2.1850   -3.0286 H       1  UNL1        0.0000
     58 H          -1.7293   -1.8062   -3.1238 H       1  UNL1        0.0000
     59 H           0.9760   -0.7756    2.1727 H       1  UNL1        0.0000
     60 H          -2.5229    2.2633   -0.1095 H       1  UNL1        0.0000
     61 H           0.7779    0.9604   -3.1964 H       1  UNL1        0.0000
     62 H           1.8748    1.9403   -3.2720 H       1  UNL1        0.0000
     63 H           1.2084    3.2189   -0.1901 H       1  UNL1        0.0000
     64 H           3.2420   -1.0276   -0.1259 H       1  UNL1        0.0000
     65 H          -1.3308   -3.1534    1.8886 H       1  UNL1        0.0000
     66 H          -1.6942    1.1642    2.3822 H       1  UNL1        0.0000
     67 H           2.3335    1.9164    1.7275 H       1  UNL1        0.0000
     68 EU          1.2636    1.8390    0.3070 Eu      1  UNL1        0.0000
@<TRIPOS>BOND
     1     1     2    2
     2     2     3   am
     3     3     4    1
     4     3     5    1
     5     5     6    1
     6     6     7    1
     7     2     8    1
     8     8     9   ar
     9     9    10   ar
    10     8    11   ar
    11    11    12   ar
    12    12    13   ar
    13    10    13   ar
    14    13    14   ar
    15    14    15   ar
    16    15    16   ar
    17    16    17   ar
    18    12    17   ar
    19    17    18   ar
    20    18    19   ar
    21    19    20    1
    22    20    21   ar
    23    21    22   ar
    24    22    23    1
    25    23    24    1
    26    23    25    1
    27    23    26    1
    28    26    27    1
    29    27    28    1
    30    28    29    1
    31    28    30    1
    32    22    31   ar
    33    28    31    1
    34    31    32   ar
    35    32    33   ar
    36    20    33   ar
    37    19    34   ar
    38    34    35   ar
    39    16    35   ar
    40     4    36    1
    41     4    37    1
    42     4    38    1
    43     5    39    1
    44     5    40    1
    45     6    41    1
    46     6    42    1
    47     7    43    1
    48     7    44    1
    49     7    45    1
    50     9    46    1
    51    10    47    1
    52    14    48    1
    53    15    49    1
    54    24    50    1
    55    24    51    1
    56    24    52    1
    57    25    53    1
    58    25    54    1
    59    25    55    1
    60    26    56    1
    61    26    57    1
    62    27    58    1
    63    27    59    1
    64    29    60    1
    65    29    61    1
    66    29    62    1
    67    30    63    1
    68    30    64    1
    69    30    65    1
    70    34    66    1
    71    35    67    1
    72    68     1    1
    73    68    33    1
    74    68    18    1
    75    68    11    1
@<TRIPOS>MOLECULE
*****
 68 75 0 0 0
SMALL
GASTEIGER

@<TRIPOS>ATOM
      1 O           1.2612   -0.3804   -1.0067 O.2     1  UNL1        0.0000
      2 C          -1.1927   -0.5387   -0.6190 C.2     1  UNL1        0.0000
      3 N          -1.1525   -0.9227    2.1986 N.am    1  UNL1        0.0000
      4 C          -1.2388   -0.6610    2.1961 C.3     1  UNL1        0.0000
      5 C          -0.8803   -0.8073    2.4627 C.3     1  UNL1        0.0000
      6 C           1.4356   -2.0642    2.8409 C.3     1  UNL1        0.0000
      7 C          -1.9554   -3.1365    0.2013 C.3     1  UNL1        0.0000
      8 C          -0.2489    2.4415    0.6302 C.ar    1  UNL1        0.0000
      9 C           1.6409    0.7763    1.0230 C.ar    1  UNL1        0.0000
     10 C          -0.0795   -0.0925   -3.8951 C.ar    1  UNL1        0.0000
     11 N           0.0030    2.6803   -0.1391 N.ar    1  UNL1        0.0000
     12 C           0.7221    2.2595   -2.0048 C.ar    1  UNL1        0.0000
     13 C          -1.6570    0.7643   -2.8628 C.ar    1  UNL1        0.0000
     14 C           0.3881   -2.3908    0.1227 C.ar    1  UNL1        0.0000
     15 C           0.3762   -2.3562    0.1523 C.ar    1  UNL1        0.0000
     16 C           0.4292   -0.8528   -2.2493 C.ar    1  UNL1        0.0000
     17 C           1.6462   -0.6361   -2.2335 C.ar    1  UNL1        0.0000
     18 N           0.8225   -0.5856    0.8159 N.ar    1  UNL1        0.0000
     19 C           0.1561   -0.9806    0.9962 C.ar    1  UNL1        0.0000
     20 C          -0.0006   -1.0527    1.1204 C.ar    1  UNL1        0.0000
     21 N          -1.7878    0.6746   -0.9891 N.ar    1  UNL1        0.0000
     22 C          -0.6098    0.3678   -1.8093 C.ar    1  UNL1        0.0000
     23 C          -1.0334   -3.9108   -0.9036 C.3     1  UNL1        0.0000
     24 C          -1.6769    1.3556    0.5669 C.3     1  UNL1        0.0000
     25 C           1.1275    1.0486   -1.1140 C.3     1  UNL1        0.0000
     26 C          -1.2395    0.4996    0.4330 C.3     1  UNL1        0.0000
     27 C          -2.4995   -0.2629    0.1357 C.3     1  UNL1        0.0000
     28 C           1.8897   -0.7319    1.9054 C.3     1  UNL1        0.0000
     29 C           0.8805    0.5609    2.3078 C.3     1  UNL1        0.0000
     30 C          -1.6732   -1.6133    0.4523 C.3     1  UNL1        0.0000
     31 C          -0.3661    0.7649   -1.7033 C.ar    1  UNL1        0.0000
     32 N          -1.7530    2.7943    1.1007 N.ar    1  UNL1        0.0000
     33 N           0.4443    1.9090    2.0761 N.ar    1  UNL1        0.0000
     34 C          -0.1473    0.0300    1.2914 C.ar    1  UNL1        0.0000
     35 C           0.0498    1.1839   -0.0737 C.ar    1  UNL1        0.0000
     36 H          -2.1152    0.1760    2.9018 H       1  UNL1        0.0000
     37 H          -0.2079   -3.3383    1.6942 H       1  UNL1        0.0000
     38 H          -0.1465    1.5336    3.1149 H       1  UNL1        0.0000
     39 H          -0.2188   -2.5122   -2.4187 H       1  UNL1        0.0000
     40 H          -2.5135   -0.8120    1.3950 H       1  UNL1        0.0000
     41 H           2.2205   -2.1586    1.9643 H       1  UNL1        0.0000
     42 H          -2.5520   -0.4084   -1.2725 H       1  UNL1        0.0000
     43 H          -1.2635    2.4365   -3.7955 H       1  UNL1        0.0000
     44 H           2.2285    1.7133   -0.6622 H       1  UNL1        0.0000
     45 H           2.1455   -1.5033    0.1611 H       1  UNL1        0.0000
     46 H          -2.4671   -1.4305    2.4203 H       1  UNL1        0.0000
     47 H           0.3869   -1.2181   -3.6590 H       1  UNL1        0.0000
     48 H           3.6953   -0.4399   -2.0523 H       1  UNL1        0.0000
     49 H          -0.9615    0.7992    3.2601 H       1  UNL1        0.0000
     50 H          -0.9053   -1.9477    1.4870 H       1  UNL1        0.0000
     51 H          -1.8869   -1.5824   -1.3996 H       1  UNL1        0.0000
     52 H          -1.2728    3.2805   -0.4902 H       1  UNL1        0.0000
     53 H           0.2135   -3.5451   -1.6784 H       1  UNL1        0.0000
     54 H          -1.2321    2.1507   -0.4182 H       1  UNL1        0.0000
     55 H           0.7891   -1.4665   -0.7656 H       1  UNL1        0.0000
     56 H           2.8466    1.1462    1.0297 H       1  UNL1        0.0000
     57 H           0.9726   -2.1850   -3.0286 H       1  UNL1        0.0000
     58 H          -1.7293   -1.8062   -3.1238 H       1  UNL1        0.0000
     59 H           0.9760   -0.7756    2.1727 H       1  UNL1        0.0000
     60 H          -2.5229    2.2633   -0.1095 H       1  UNL1        0.0000
     61 H           0.7779    0.9604   -3.1964 H       1  UNL1        0.0000
     62 H           1.8748    1.9403   -3.2720 H       1  UNL1        0.0000
     63 H           1.2084    3.2189   -0.1901 H       1  UNL1        0.0000
     64 H           3.2420   -1.0276   -0.1259 H       1  UNL1        0.0000
     65 H          -1.3308   -3.1534    1.8886 H       1  UNL1        0.0000
     66 H          -1.6942    1.1642    2.3822 H       1  UNL1        0.0000
     67 H           2.3335    1.9164    1.7275 H       1  UNL1        0.0000
     68 EU          1.2636    1.8390    0.3070 Eu      1  UNL1        0.0000
@<TRIPOS>BOND
     1     1     2    2
     2     2     3   am
     3     3     4    1
     4     3     5    1
     5     5     6    1
     6     6     7    1
     7     2     8    1
     8     8     9   ar
     9     9    10   ar
    10     8    11   ar
    11    11    12   ar
    12    12    13   ar
    13    10    13   ar
    14    13    14   ar
    15    14    15   ar
    16    15    16   ar
    17    16    17   ar
    18    12    17   ar
    19    17    18   ar
    20    18    19   ar
    21    19    20    1
    22    20    21   ar
    23    21    22   ar
    24    22    23    1
    25    23    24    1
    26    23    25    1
    27    23    26    1
    28    26    27    1
    29    27    28    1
    30    28    29    1
    31    28    30    1
    32    22    31   ar
    33    28    31    1
    34    31    32   ar
    35    32    33   ar
    36    20    33   ar
    37    19    34   ar
    38    34    35   ar
    39    16    35   ar
    40     4    36    1
    41     4    37    1
    42     4    38    1
    43     5    39    1
    44     5    40    1
    45     6    41    1
    46     6    42    1
    47     7    43    1
    48     7    44    1
    49     7    45    1
    50     9    46    1
    51    10    47    1
    52    14    48    1
    53    15    49    1
    54    24    50    1
    55    24    51    1
    56    24    52    1
    57    25    53    1
    58    25    54    1
    59    25    55    1
    60    26    56    1
    61    26    57    1
    62    27    58    1
    63    27    59    1
    64    29    60    1
    65    29    61    1
    66    29    62    1
    67    30    63    1
    68    30    64    1
    69    30    65    1
    70    34    66    1
    71    35    67    1
    72    68     1    1
    73    68    33    1
    74    68    18    1
    75    68    11    1
@<TRIPOS>MOLECULE
*****
 68 75 0 0 0
SMALL
GASTEIGER

@<TRIPOS>ATOM
      1 O           1.2612   -0.3804   -1.0067 O.2     1  UNL1        0.0000
      2 C          -1.1927   -0.5387   -0.6190 C.2     1  UNL1        0.0000
      3 N          -1.1525   -0.9227    2.1986 N.am    1  UNL1        0.0000
      4 C          -1.2388   -0.6610    2.1961 C.3     1  UNL1        0.0000
      5 C          -0.8803   -0.8073    2.4627 C.3     1  UNL1        0.0000
      6 C           1.4356   -2.0642    2.8409 C.3     1  UNL1        0.0000
      7 C          -1.9554   -3.1365    0.2013 C.3     1  UNL1        0.0000
      8 C          -0.2489    2.4415    0.6302 C.ar    1  UNL1        0.0000
      9 C           1.6409    0.7763    1.0230 C.ar    1  UNL1        0.0000
     10 C          -0.0795   -0.0925   -3.8951 C.ar    1  UNL1        0.0000
     11 N           0.0030    2.6803   -0.1391 N.ar    1  UNL1        0.0000
     12 C           0.7221    2.2595   -2.0048 C.ar    1  UNL1        0.0000
     13 C          -1.6570    0.7643   -2.8628 C.ar    1  UNL1        0.0000
     14 C           0.3881   -2.3908    0.1227 C.ar    1  UNL1        0.0000
     15 C           0.3762   -2.3562    0.1523 C.ar    1  UNL1        0.0000
     16 C           0.4292   -0.8528   -2.2493 C.ar    1  UNL1        0.0000
     17 C           1.6462   -0.6361   -2.2335 C.ar    1  UNL1        0.0000
     18 N           0.8225   -0.5856    0.8159 N.ar    1  UNL1        0.0000
     19 C           0.1561   -0.9806    0.9962 C.ar    1  UNL1        0.0000
     20 C          -0.0006   -1.0527    1.1204 C.ar    1  UNL1        0.0000
     21 N          -1.7878    0.6746   -0.9891 N.ar    1  UNL1        0.0000
     22 C          -0.6098    0.3678   -1.8093 C.ar    1  UNL1        0.0000
     23 C          -1.0334   -3.9108   -0.9036 C.3     1  UNL1        0.0000
     24 C          -1.6769    1.3556    0.5669 C.3     1  UNL1        0.0000
     25 C           1.1275    1.0486   -1.1140 C.3     1  UNL1        0.0000
     26 C          -1.2395    0.4996    0.4330 C.3     1  UNL1        0.0000
     27 C          -2.4995   -0.2629    0.1357 C.3     1  UNL1        0.0000
     28 C           1.8897   -0.7319    1.9054 C.3     1  UNL1        0.0000
     29 C           0.8805    0.5609    2.3078 C.3     1  UNL1        0.0000
     30 C          -1.6732   -1.6133    0.4523 C.3     1  UNL1        0.0000
     31 C          -0.3661    0.7649   -1.7033 C.ar    1  UNL1        0.0000
     32 N          -1.7530    2.7943    1.1007 N.ar    1  UNL1        0.0000
     33 N           0.4443    1.9090    2.0761 N.ar    1  UNL1        0.0000
     34 C          -0.1473    0.0300    1.2914 C.ar    1  UNL1        0.0000
     35 C           0.0498    1.1839   -0.0737 C.ar    1  UNL1        0.0000
     36 H          -2.1152    0.1760    2.9018 H       1  UNL1        0.0000
     37 H          -0.2079   -3.3383    1.6942 H       1  UNL1        0.0000
     38 H          -0.1465    1.5336    3.1149 H       1  UNL1        0.0000
     39 H          -0.2188   -2.5122   -2.4187 H       1  UNL1        0.0000
     40 H          -2.5135   -0.8120    1.3950 H       1  UNL1        0.0000
     41 H           2.2205   -2.1586    1.9643 H       1  UNL1        0.0000
     42 H          -2.5520   -0.4084   -1.2725 H       1  UNL1        0.0000
     43 H          -1.2635    2.4365   -3.7955 H       1  UNL1        0.0000
     44 H           2.2285    1.7133   -0.6622 H       1  UNL1        0.0000
     45 H           2.1455   -1.5033    0.1611 H       1  UNL1        0.0000
     46 H          -2.4671   -1.4305    2.4203 H       1  UNL1        0.0000
     47 H           0.3869   -1.2181   -3.6590 H       1  UNL1        0.0000
     48 H           3.6953   -0.4399   -2.0523 H       1  UNL1        0.0000
     49 H          -0.9615    0.7992    3.2601 H       1  UNL1        0.0000
     50 H          -0.9053   -1.9477    1.4870 H       1  UNL1        0.0000
     51 H          -1.8869   -1.5824   -1.3996 H       1  UNL1        0.0000
     52 H          -1.2728    3.2805   -0.4902 H       1  UNL1        0.0000
     53 H           0.2135   -3.5451   -1.6784 H       1  UNL1        0.0000
     54 H          -1.2321    2.1507   -0.4182 H       1  UNL1        0.0000
     55 H           0.7891   -1.4665   -0.7656 H       1  UNL1        0.0000
     56 H           2.8466    1.1462    1.0297 H       1  UNL1        0.0000
     57 H           0.9726   -2.1850   -3.0286 H       1  UNL1        0.0000
     58 H          -1.7293   -1.8062   -3.1238 H       1  UNL1        0.0000
     59 H           0.9760   -0.7756    2.1727 H       1  UNL1        0.0000
     60 H          -2.5229    2.2633   -0.1095 H       1  UNL1        0.0000
     61 H           0.7779    0.9604   -3.1964 H       1  UNL1        0.0000
     62 H           1.8748    1.9403   -3.2720 H       1  UNL1        0.0000
     63 H           1.2084    3.2189   -0.1901 H       1  UNL1        0.0000
     64 H           3.2420   -1.0276   -0.1259 H       1  UNL1        0.0000
     65 H          -1.3308   -3.1534    1.8886 H       1  UNL1        0.0000
     66 H          -1.6942    1.1642    2.3822 H       1  UNL1        0.0000
     67 H           2.3335    1.9164    1.7275 H       1  UNL1        0.0000
     68 EU          1.2636    1.8390    0.3070 Eu      1  UNL1        0.0000
@<TRIPOS>BOND
     1     1     2    2
     2     2     3   am
     3     3     4    1
     4     3     5    1
     5     5     6    1
     6     6     7    1
     7     2     8    1
     8     8     9   ar
     9     9    10   ar
    10     8    11   ar
    11    11    12   ar
    12    12    13   ar
    13    10    13   ar
    14    13    14   ar
    15    14    15   ar
    16    15    16   ar
    17    16    17   ar
    18    12    17   ar
    19    17    18   ar
    20    18    19   ar
    21    19    20    1
    22    20    21   ar
    23    21    22   ar
    24    22    23    1
    25    23    24    1
    26    23    25    1
    27    23    26    1
    28    26    27    1
    29    27    28    1
    30    28    29    1
    31    28    30    1
    32    22    31   ar
    33    28    31    1
    34    31    32   ar
    35    32    33   ar
    36    20    33   ar
    37    19    34   ar
    38    34    35   ar
    39    16    35   ar
    40     4    36    1
    41     4    37    1
    42     4    38    1
    43     5    39    1
    44     5    40    1
    45     6    41    1
    46     6    42    1
    47     7    43    1
    48     7    44    1
    49     7    45    1
    50     9    46    1
    51    10    47    1
    52    14    48    1
    53    15    49    1
    54    24    50    1
    55    24    51    1
    56    24    52    1
    57    25    53    1
    58    25    54    1
    59    25    55    1
    60    26    56    1
    61    26    57    1
    62    27    58    1
    63    27    59    1
    64    29    60    1
    65    29    61    1
    66    29    62    1
    67    30    63    1
    68    30    64    1
    69    30    65    1
    70    34    66    1
    71    35    67    1
    72    68     1    1
    73    68    33    1
    74    68    18    1
    75    68    11    1
@<TRIPOS>MOLECULE
*****
 68 75 0 0 0
SMALL
GASTEIGER

@<TRIPOS>ATOM
      1 O           1.2612   -0.3804   -1.0067 O.2     1  UNL1        0.0000
      2 C          -1.1927   -0.5387   -0.6190 C.2     1  UNL1        0.0000
      3 N          -1.1525   -0.9227    2.1986 N.am    1  UNL1        0.0000
      4 C          -1.2388   -0.6610    2.1961 C.3     1  UNL1        0.0000
      5 C          -0.8803   -0.8073    2.4627 C.3     1  UNL1        0.0000
      6 C           1.4356   -2.0642    2.8409 C.3     1  UNL1        0.0000
      7 C          -1.9554   -3.1365    0.2013 C.3     1  UNL1        0.0000
      8 C          -0.2489    2.4415    0.6302 C.ar    1  UNL1        0.0000
      9 C           1.6409    0.7763    1.0230 C.ar    1  UNL1        0.0000
     10 C          -0.0795   -0.0925   -3.8951 C.ar    1  UNL1        0.0000
     11 N           0.0030    2.6803   -0.1391 N.ar    1  UNL1        0.0000
     12 C           0.7221    2.2595   -2.0048 C.ar    1  UNL1        0.0000
     13 C          -1.6570    0.7643   -2.8628 C.ar    1  UNL1        0.0000
     14 C           0.3881   -2.3908    0.1227 C.ar    1  UNL1        0.0000
     15 C           0.3762   -2.3562    0.1523 C.ar    1  UNL1        0.0000
     16 C           0.4292   -0.8528   -2.2493 C.ar    1  UNL1        0.0000
     17 C           1.6462   -0.6361   -2.2335 C.ar    1  UNL1        0.0000
     18 N           0.8225   -0.5856    0.8159 N.ar    1  UNL1        0.0000
     19 C           0.1561   -0.9806    0.9962 C.ar    1  UNL1        0.0000
     20 C          -0.0006   -1.0527    1.1204 C.ar    1  UNL1        0.0000
     21 N          -1.7878    0.6746   -0.9891 N.ar    1  UNL1        0.0000
     22 C          -0.6098    0.3678   -1.8093 C.ar    1  UNL1        0.0000
     23 C          -1.0334   -3.9108   -0.9036 C.3     1  UNL1        0.0000
     24 C          -1.6769    1.3556    0.5669 C.3     1  UNL1        0.0000
     25 C           1.1275    1.0486   -1.1140 C.3     1  UNL1        0.0000
     26 C          -1.2395    0.4996    0.4330 C.3     1  UNL1        0.0000
     27 C          -2.4995   -0.2629    0.1357 C.3     1  UNL1        0.0000
     28 C           1.8897   -0.7319    1.9054 C.3     1  UNL1        0.0000
     29 C           0.8805    0.5609    2.3078 C.3     1  UNL1        0.0000
     30 C          -1.6732   -1.6133    0.4523 C.3     1  UNL1        0.0000
     31 C          -0.3661    0.7649   -1.7033 C.ar    1  UNL1        0.0000
     32 N          -1.7530    2.7943    1.1007 N.ar    1  UNL1        0.0000
     33 N           0.4443    1.9090    2.0761 N.ar    1  UNL1        0.0000
     34 C          -0.1473    0.0300    1.2914 C.ar    1  UNL1        0.0000
     35 C           0.0498    1.1839   -0.0737 C.ar    1  UNL1        0.0000
     36 H          -2.1152    0.1760    2.9018 H       1  UNL1        0.0000
     37 H          -0.2079   -3.3383    1.6942 H       1  UNL1        0.0000
     38 H          -0.1465    1.5336    3.1149 H       1  UNL1        0.0000
     39 H          -0.2188   -2.5122   -2.4187 H       1  UNL1        0.0000
     40 H          -2.5135   -0.8120    1.3950 H       1  UNL1        0.0000
     41 H           2.2205   -2.1586    1.9643 H       1  UNL1        0.0000
     42 H          -2.5520   -0.4084   -1.2725 H       1  UNL1        0.0000
     43 H          -1.2635    2.4365   -3.7955 H       1  UNL1        0.0000
     44 H           2.2285    1.7133   -0.6622 H       1  UNL1        0.0000
     45 H           2.1455   -1.5033    0.1611 H       1  UNL1        0.0000
     46 H          -2.4671   -1.4305    2.4203 H       1  UNL1        0.0000
     47 H           0.3869   -1.2181   -3.6590 H       1  UNL1        0.0000
     48 H           3.6953   -0.4399   -2.0523 H       1  UNL1        0.0000
     49 H          -0.9615    0.7992    3.2601 H       1  UNL1        0.0000
     50 H          -0.9053   -1.9477    1.4870 H       1  UNL1        0.0000
     51 H          -1.8869   -1.5824   -1.3996 H       1  UNL1        0.0000
     52 H          -1.2728    3.2805   -0.4902 H       1  UNL1        0.0000
     53 H           0.2135   -3.5451   -1.6784 H       1  UNL1        0.0000
     54 H          -1.2321    2.1507   -0.4182 H       1  UNL1        0.0000
     55 H           0.7891   -1.4665   -0.7656 H       1  UNL1        0.0000
     56 H           2.8466    1.1462    1.0297 H       1  UNL1        0.0000
     57 H           0.9726   -2.1850   -3.0286 H       1  UNL1        0.0000
     58 H          -1.7293   -1.8062   -3.1238 H       1  UNL1        0.0000
     59 H           0.9760   -0.7756    2.1727 H       1  UNL1        0.0000
     60 H          -2.5229    2.2633   -0.1095 H       1  UNL1        0.0000
     61 H           0.7779    0.9604   -3.1964 H       1  UNL1        0.0000
     62 H           1.8748    1.9403   -3.2720 H       1  UNL1        0.0000
     63 H           1.2084    3.2189   -0.1901 H       1  UNL1        0.0000
     64 H           3.2420   -1.0276   -0.1259 H       1  UNL1        0.0000
     65 H          -1.3308   -3.1534    1.8886 H       1  UNL1        0.0000
     66 H          -1.6942    1.1642    2.3822 H       1  UNL1        0.0000
     67 H           2.3335    1.9164    1.7275 H       1  UNL1        0.0000
     68 EU          1.2636    1.8390    0.3070 Eu      1  UNL1        0.0000
@<TRIPOS>BOND
     1     1     2    2
     2     2     3   am
     3     3     4    1
     4     3     5    1
     5     5     6    1
     6     6     7    1
     7     2     8    1
     8     8     9   ar
     9     9    10   ar
    10     8    11   ar
    11    11    12   ar
    12    12    13   ar
    13    10    13   ar
    14    13    14   ar
    15    14    15   ar
    16    15    16   ar
    17    16    17   ar
    18    12    17   ar
    19    17    18   ar
    20    18    19   ar
    21    19    20    1
    22    20    21   ar
    23    21    22   ar
    24    22    23    1
    25    23    24    1
    26    23    25    1
    27    23    26    1
    28    26    27    1
    29    27    28    1
    30    28    29    1
    31    28    30    1
    32    22    31   ar
    33    28    31    1
    34    31    32   ar
    35    32    33   ar
    36    20    33   ar
    37    19    34   ar
    38    34    35   ar
    39    16    35   ar
    40     4    36    1
    41     4    37    1
    42     4    38    1
    43     5    39    1
    44     5    40    1
    45     6    41    1
    46     6    42    1
    47     7    43    1
    48     7    44    1
    49     7    45    1
    50     9    46    1
    51    10    47    1
    52    14    48    1
    53    15    49    1
    54    24    50    1
    55    24    51    1
    56    24    52    1
    57    25    53    1
    58    25    54    1
    59    25    55    1
    60    26    56    1
    61    26    57    1
    62    27    58    1
    63    27    59    1
    64    29    60    1
    65    29    61    1
    66    29    62    1
    67    30    63    1
    68    30    64    1
    69    30    65    1
    70    34    66    1
    71    35    67    1
    72    68     1    1
    73    68    33    1
    74    68    18    1
    75    68    11    1
@<TRIPOS>MOLECULE
*****
 68 75 0 0 0
SMALL
GASTEIGER

@<TRIPOS>ATOM
      1 O           1.2612   -0.3804   -1.0067 O.2     1  UNL1        0.0000
      2 C          -1.1927   -0.5387   -0.6190 C.2     1  UNL1        0.0000
      3 N          -1.1525   -0.9227    2.1986 N.am    1  UNL1        0.0000
      4 C          -1.2388   -0.6610    2.1961 C.3     1  UNL1        0.0000
      5 C          -0.8803   -0.8073    2.4627 C.3     1  UNL1        0.0000
      6 C           1.4356   -2.0642    2.8409 C.3     1  UNL1        0.0000
      7 C          -1.9554   -3.1365    0.2013 C.3     1  UNL1        0.0000
      8 C          -0.2489    2.4415    0.6302 C.ar    1  UNL1        0.0000
      9 C           1.6409    0.7763    1.0230 C.ar    1  UNL1        0.0000
     10 C          -0.0795   -0.0925   -3.8951 C.ar    1  UNL1        0.0000
     11 N           0.0030    2.6803   -0.1391 N.ar    1  UNL1        0.0000
     12 C           0.7221    2.2595   -2.0048 C.ar    1  UNL1        0.0000
     13 C          -1.6570    0.7643   -2.8628 C.ar    1  UNL1        0.0000
     14 C           0.3881   -2.3908    0.1227 C.ar    1  UNL1        0.0000
     15 C           0.3762   -2.3562    0.1523 C.ar    1  UNL1        0.0000
     16 C           0.4292   -0.8528   -2.2493 C.ar    1  UNL1        0.0000
     17 C           1.6462   -0.6361   -2.2335 C.ar    1  UNL1        0.0000
     18 N           0.8225   -0.5856    0.8159 N.ar    1  UNL1        0.0000
     19 C           0.1561   -0.9806    0.9962 C.ar    1  UNL1        0.0000
     20 C          -0.0006   -1.0527    1.1204 C.ar    1  UNL1        0.0000
     21 N          -1.7878    0.6746   -0.9891 N.ar    1  UNL1        0.0000
     22 C          -0.6098    0.3678   -1.8093 C.ar    1  UNL1        0.0000
     23 C          -1.0334   -3.9108   -0.9036 C.3     1  UNL1        0.0000
     24 C          -1.6769    1.3556    0.5669 C.3     1  UNL1        0.0000
     25 C           1.1275    1.0486   -1.1140 C.3     1  UNL1        0.0000
     26 C          -1.2395    0.4996    0.4330 C.3     1  UNL1        0.0000
     27 C          -2.4995   -0.2629    0.1357 C.3     1  UNL1        0.0000
     28 C           1.8897   -0.7319    1.9054 C.3     1  UNL1        0.0000
     29 C           0.8805    0.5609    2.3078 C.3     1  UNL1        0.0000
     30 C          -1.6732   -1.6133    0.4523 C.3     1  UNL1        0.0000
     31 C          -0.3661    0.7649   -1.7033 C.ar    1  UNL1        0.0000
     32 N          -1.7530    2.7943    1.1007 N.ar    1  UNL1        0.0000
     33 N           0.4443    1.9090    2.0761 N.ar    1  UNL1        0.0000
     34 C          -0.1473    0.0300    1.2914 C.ar    1  UNL1        0.0000
     35 C           0.0498    1.1839   -0.0737 C.ar    1  UNL1        0.0000
     36 H          -2.1152    0.1760    2.9018 H       1  UNL1        0.0000
     37 H          -0.2079   -3.3383    1.6942 H       1  UNL1        0.0000
     38 H          -0.1465    1.5336    3.1149 H       1  UNL1        0.0000
     39 H          -0.2188   -2.5122   -2.4187 H       1  UNL1        0.0000
     40 H          -2.5135   -0.8120    1.3950 H       1  UNL1        0.0000
     41 H           2.2205   -2.1586    1.9643 H       1  UNL1        0.0000
     42 H          -2.5520   -0.4084   -1.2725 H       1  UNL1        0.0000
     43 H          -1.2635    2.4365   -3.7955 H       1  UNL1        0.0000
     44 H           2.2285    1.7133   -0.6622 H       1  UNL1        0.0000
     45 H           2.1455   -1.5033    0.1611 H       1  UNL1        0.0000
     46 H          -2.4671   -1.4305    2.4203 H       1  UNL1        0.0000
     47 H           0.3869   -1.2181   -3.6590 H       1  UNL1        0.0000
     48 H           3.6953   -0.4399   -2.0523 H       1  UNL1        0.0000
     49 H          -0.9615    0.7992    3.2601 H       1  UNL1        0.0000
     50 H          -0.9053   -1.9477    1.4870 H       1  UNL1        0.0000
     51 H          -1.8869   -1.5824   -1.3996 H       1  UNL1        0.0000
     52 H          -1.2728    3.2805   -0.4902 H       1  UNL1        0.0000
     53 H           0.2135   -3.5451   -1.6784 H       1  UNL1        0.0000
     54 H          -1.2321    2.1507   -0.4182 H       1  UNL1        0.0000
     55 H           0.7891   -1.4665   -0.7656 H       1  UNL1        0.0000
     56 H           2.8466    1.1462    1.0297 H       1  UNL1        0.0000
     57 H           0.9726   -2.1850   -3.0286 H       1  UNL1        0.0000
     58 H          -1.7293   -1.8062   -3.1238 H       1  UNL1        0.0000
     59 H           0.9760   -0.7756    2.1727 H       1  UNL1        0.0000
     60 H          -2.5229    2.2633   -0.1095 H       1  UNL1        0.0000
     61 H           0.7779    0.9604   -3.1964 H       1  UNL1        0.0000
     62 H           1.8748    1.9403   -3.2720 H       1  UNL1        0.0000
     63 H           1.2084    3.2189   -0.1901 H       1  UNL1        0.0000
     64 H           3.2420   -1.0276   -0.1259 H       1  UNL1        0.0000
     65 H          -1.3308   -3.1534    1.8886 H       1  UNL1        0.0000
     66 H          -1.6942    1.1642    2.3822 H       1  UNL1        0.0000
     67 H           2.3335    1.9164    1.7275 H       1  UNL1        0.0000
     68 EU          1.2636    1.8390    0.3070 Eu      1  UNL1        0.0000
@<TRIPOS>BOND
     1     1     2    2
     2     2     3   am
     3     3     4    1
     4     3     5    1
     5     5     6    1
     6     6     7    1
     7     2     8    1
     8     8     9   ar
     9     9    10   ar
    10     8    11   ar
    11    11    12   ar
    12    12    13   ar
    13    10    13   ar
    14    13    14   ar
    15    14    15   ar
    16    15    16   ar
    17    16    17   ar
    18    12    17   ar
    19    17    18   ar
    20    18    19   ar
    21    19    20    1
    22    20    21   ar
    23    21    22   ar
    24    22    23    1
    25    23    24    1
    26    23    25    1
    27    23    26    1
    28    26    27    1
    29    27    28    1
    30    28    29    1
    31    28    30    1
    32    22    31   ar
    33    28    31    1
    34    31    32   ar
    35    32    33   ar
    36    20    33   ar
    37    19    34   ar
    38    34    35   ar
    39    16    35   ar
    40     4    36    1
    41     4    37    1
    42     4    38    1
    43     5    39    1
    44     5    40    1
    45     6    41    1
    46     6    42    1
    47     7    43    1
    48     7    44    1
    49     7    45    1
    50     9    46    1
    51    10    47    1
    52    14    48    1
    53    15    49    1
    54    24    50    1
    55    24    51    1
    56    24    52    1
    57    25    53    1
    58    25    54    1
    59    25    55    1
    60    26    56    1
    61    26    57    1
    62    27    58    1
    63    27    59    1
    64    29    60    1
    65    29    61    1
    66    29    62    1
    67    30    63    1
    68    30    64    1
    69    30    65    1
    70    34    66    1
    71    35    67    1
    72    68     1    1
    73    68    33    1
    74    68    18    1
    75    68    11    1
@<TRIPOS>MOLECULE
*****
 68 75 0 0 0
SMALL
GASTEIGER

@<TRIPOS>ATOM
      1 O           1.2612   -0.3804   -1.0067 O.2     1  UNL1        0.0000
      2 C          -1.1927   -0.5387   -0.6190 C.2     1  UNL1        0.0000
      3 N          -1.1525   -0.9227    2.1986 N.am    1  UNL1        0.0000
      4 C          -1.2388   -0.6610    2.1961 C.3     1  UNL1        0.0000
      5 C          -0.8803   -0.8073    2.4627 C.3     1  UNL1        0.0000
      6 C           1.4356   -2.0642    2.8409 C.3     1  UNL1        0.0000
      7 C          -1.9554   -3.1365    0.2013 C.3     1  UNL1        0.0000
      8 C          -0.2489    2.4415    0.6302 C.ar    1  UNL1        0.0000
      9 C           1.6409    0.7763    1.0230 C.ar    1  UNL1        0.0000
     10 C          -0.0795   -0.0925   -3.8951 C.ar    1  UNL1        0.0000
     11 N           0.0030    2.6803   -0.1391 N.ar    1  UNL1        0.0000
     12 C           0.7221    2.2595   -2.0048 C.ar    1  UNL1        0.0000
     13 C          -1.6570    0.7643   -2.8628 C.ar    1  UNL1        0.0000
     14 C           0.3881   -2.3908    0.1227 C.ar    1  UNL1        0.0000
     15 C           0.3762   -2.3562    0.1523 C.ar    1  UNL1        0.0000
     16 C           0.4292   -0.8528   -2.2493 C.ar    1  UNL1        0.0000
     17 C           1.6462   -0.6361   -2.2335 C.ar    1  UNL1        0.0000
     18 N           0.8225   -0.5856    0.8159 N.ar    1  UNL1        0.0000
     19 C           0.1561   -0.9806    0.9962 C.ar    1  UNL1        0.0000
     20 C          -0.0006   -1.0527    1.1204 C.ar    1  UNL1        0.0000
     21 N          -1.7878    0.6746   -0.9891 N.ar    1  UNL1        0.0000
     22 C          -0.6098    0.3678   -1.8093 C.ar    1  UNL1        0.0000
     23 C          -1.0334   -3.9108   -0.9036 C.3     1  UNL1        0.0000
     24 C          -1.6769    1.3556    0.5669 C.3     1  UNL1        0.0000
     25 C           1.1275    1.0486   -1.1140 C.3     1  UNL1        0.0000
     26 C          -1.2395    0.4996    0.4330 C.3     1  UNL1        0.0000
     27 C          -2.4995   -0.2629    0.1357 C.3     1  UNL1        0.0000
     28 C           1.8897   -0.7319    1.9054 C.3     1  UNL1        0.0000
     29 C           0.8805    0.5609    2.3078 C.3     1  UNL1        0.0000
     30 C          -1.6732   -1.6133    0.4523 C.3     1  UNL1        0.0000
     31 C          -0.3661    0.7649   -1.7033 C.ar    1  UNL1        0.0000
     32 N          -1.7530    2.7943    1.1007 N.ar    1  UNL1        0.0000
     33 N           0.4443    1.9090    2.0761 N.ar    1  UNL1        0.0000
     34 C          -0.1473    0.0300    1.2914 C.ar    1  UNL1        0.0000
     35 C           0.0498    1.1839   -0.0737 C.ar    1  UNL1        0.0000
     36 H          -2.1152    0.1760    2.9018 H       1  UNL1        0.0000
     37 H          -0.2079   -3.3383    1.6942 H       1  UNL1        0.0000
     38 H          -0.1465    1.5336    3.1149 H       1  UNL1        0.0000
     39 H          -0.2188   -2.5122   -2.4187 H       1  UNL1        0.0000
     40 H          -2.5135   -0.8120    1.3950 H       1  UNL1        0.0000
     41 H           2.2205   -2.1586    1.9643 H       1  UNL1        0.0000
     42 H          -2.5520   -0.4084   -1.2725 H       1  UNL1        0.0000
     43 H          -1.2635    2.4365   -3.7955 H       1  UNL1        0.0000
     44 H           2.2285    1.7133   -0.6622 H       1  UNL1        0.0000
     45 H           2.1455   -1.5033    0.1611 H       1  UNL1        0.0000
     46 H          -2.4671   -1.4305    2.4203 H       1  UNL1        0.0000
     47 H           0.3869   -1.2181   -3.6590 H       1  UNL1        0.0000
     48 H           3.6953   -0.4399   -2.0523 H       1  UNL1        0.0000
     49 H          -0.9615    0.7992    3.2601 H       1  UNL1        0.0000
     50 H          -0.9053   -1.9477    1.4870 H       1  UNL1        0.0000
     51 H          -1.8869   -1.5824   -1.3996 H       1  UNL1        0.0000
     52 H          -1.2728    3.2805   -0.4902 H       1  UNL1        0.0000
     53 H           0.2135   -3.5451   -1.6784 H       1  UNL1        0.0000
     54 H          -1.2321    2.1507   -0.4182 H       1  UNL1        0.0000
     55 H           0.7891   -1.4665   -0.7656 H       1  UNL1        0.0000
     56 H           2.8466    1.1462    1.0297 H       1  UNL1        0.0000
     57 H           0.9726   -2.1850   -3.0286 H       1  UNL1        0.0000
     58 H          -1.7293   -1.8062   -3.1238 H       1  UNL1        0.0000
     59 H           0.9760   -0.7756    2.1727 H       1  UNL1        0.0000
     60 H          -2.5229    2.2633   -0.1095 H       1  UNL1        0.0000
     61 H           0.7779    0.9604   -3.1964 H       1  UNL1        0.0000
     62 H           1.8748    1.9403   -3.2720 H       1  UNL1        0.0000
     63 H           1.2084    3.2189   -0.1901 H       1  UNL1        0.0000
     64 H           3.2420   -1.0276   -0.1259 H       1  UNL1        0.0000
     65 H          -1.3308   -3.1534    1.8886 H       1  UNL1        0.0000
     66 H          -1.6942    1.1642    2.3822 H       1  UNL1        0.0000
     67 H           2.3335    1.9164    1.7275 H       1  UNL1        0.0000
     68 EU          1.2636    1.8390    0.3070 Eu      1  UNL1        0.0000
@<TRIPOS>BOND
     1     1     2    2
     2     2     3   am
     3     3     4    1
     4     3     5    1
     5     5     6    1
     6     6     7    1
     7     2     8    1
     8     8     9   ar
     9     9    10   ar
    10     8    11   ar
    11    11    12   ar
    12    12    13   ar
    13    10    13   ar
    14    13    14   ar
    15    14    15   ar
    16    15    16   ar
    17    16    17   ar
    18    12    17   ar
    19    17    18   ar
    20    18    19   ar
    21    19    20    1
    22    20    21   ar
    23    21    22   ar
    24    22    23    1
    25    23    24    1
    26    23    25    1
    27    23    26    1
    28    26    27    1
    29    27    28    1
    30    28    29    1
    31    28    30    1
    32    22    31   ar
    33    28    31    1
    34    31    32   ar
    35    32    33   ar
    36    20    33   ar
    37    19    34   ar
    38    34    35   ar
    39    16    35   ar
    40     4    36    1
    41     4    37    1
    42     4    38    1
    43     5    39    1
    44     5    40    1
    45     6    41    1
    46     6    42    1
    47     7    43    1
    48     7    44    1
    49     7    45    1
    50     9    46    1
    51    10    47    1
    52    14    48    1
    53    15    49    1
    54    24    50    1
    55    24    51    1
    56    24    52    1
    57    25    53    1
    58    25    54    1
    59    25    55    1
    60    26    56    1
    61    26    57    1
    62    27    58    1
    63    27    59    1
    64    29    60    1
    65    29    61    1
    66    29    62    1
    67    30    63    1
    68    30    64    1
    69    30    65    1
    70    34    66    1
    71    35    67    1
    72    68     1    1
    73    68    33    1
    74    68    18    1
    75    68    11    1
@<TRIPOS>MOLECULE
*****
 68 75 0 0 0
SMALL
GASTEIGER

@<TRIPOS>ATOM
      1 O           1.2612   -0.3804   -1.0067 O.2     1  UNL1        0.0000
      2 C          -1.1927   -0.5387   -0.6190 C.2     1  UNL1        0.0000
      3 N          -1.1525   -0.9227    2.1986 N.am    1  UNL1        0.0000
      4 C          -1.2388   -0.6610    2.1961 C.3     1  UNL1        0.0000
      5 C          -0.8803   -0.8073    2.4627 C.3     1  UNL1        0.0000
      6 C           1.4356   -2.0642    2.8409 C.3     1  UNL1        0.0000
      7 C          -1.9554   -3.1365    0.2013 C.3     1  UNL1        0.0000
      8 C          -0.2489    2.4415    0.6302 C.ar    1  UNL1        0.0000
      9 C           1.6409    0.7763    1.0230 C.ar    1  UNL1        0.0000
     10 C          -0.0795   -0.0925   -3.8951 C.ar    1  UNL1        0.0000
     11 N           0.0030    2.6803   -0.1391 N.ar    1  UNL1        0.0000
     12 C           0.7221    2.2595   -2.0048 C.ar    1  UNL1        0.0000
     13 C          -1.6570    0.7643   -2.8628 C.ar    1  UNL1        0.0000
     14 C           0.3881   -2.3908    0.1227 C.ar    1  UNL1        0.0000
     15 C           0.3762   -2.3562    0.1523 C.ar    1  UNL1        0.0000
     16 C           0.4292   -0.8528   -2.2493 C.ar    1  UNL1        0.0000
     17 C           1.6462   -0.6361   -2.2335 C.ar    1  UNL1        0.0000
     18 N           0.8225   -0.5856    0.8159 N.ar    1  UNL1        0.0000
     19 C           0.1561   -0.9806    0.9962 C.ar    1  UNL1        0.0000
     20 C          -0.0006   -1.0527    1.1204 C.ar    1  UNL1        0.0000
     21 N          -1.7878    0.6746   -0.9891 N.ar    1  UNL1        0.0000
     22 C          -0.6098    0.3678   -1.8093 C.ar    1  UNL1        0.0000
     23 C          -1.0334   -3.9108   -0.9036 C.3     1  UNL1        0.0000
     24 C          -1.6769    1.3556    0.5669 C.3     1  UNL1        0.0000
     25 C           1.1275    1.0486   -1.1140 C.3     1  UNL1        0.0000
     26 C          -1.2395    0.4996    0.4330 C.3     1  UNL1        0.0000
     27 C          -2.4995   -0.2629    0.1357 C.3     1  UNL1        0.0000
     28 C           1.8897   -0.7319    1.9054 C.3     1  UNL1        0.0000
     29 C           0.8805    0.5609    2.3078 C.3     1  UNL1        0.0000
     30 C          -1.6732   -1.6133    0.4523 C.3     1  UNL1        0.0000
     31 C          -0.3661    0.7649   -1.7033 C.ar    1  UNL1        0.0000
     32 N          -1.7530    2.7943    1.1007 N.ar    1  UNL1        0.0000
     33 N           0.4443    1.9090    2.0761 N.ar    1  UNL1        0.0000
     34 C          -0.1473    0.0300    1.2914 C.ar    1  UNL1        0.0000
     35 C           0.0498    1.1839   -0.0737 C.ar    1  UNL1        0.0000
     36 H          -2.1152    0.1760    2.9018 H       1  UNL1        0.0000
     37 H          -0.2079   -3.3383    1.6942 H       1  UNL1        0.0000
     38 H          -0.1465    1.5336    3.1149 H       1  UNL1        0.0000
     39 H          -0.2188   -2.5122   -2.4187 H       1  UNL1        0.0000
     40 H          -2.5135   -0.8120    1.3950 H       1  UNL1        0.0000
     41 H           2.2205   -2.1586    1.9643 H       1  UNL1        0.0000
     42 H          -2.5520   -0.4084   -1.2725 H       1  UNL1        0.0000
     43 H          -1.2635    2.4365   -3.7955 H       1  UNL1        0.0000
     44 H           2.2285    1.7133   -0.6622 H       1  UNL1        0.0000
     45 H           2.1455   -1.5033    0.1611 H       1  UNL1        0.0000
     46 H          -2.4671   -1.4305    2.4203 H       1  UNL1        0.0000
     47 H           0.3869   -1.2181   -3.6590 H       1  UNL1        0.0000
     48 H           3.6953   -0.4399   -2.0523 H       1  UNL1        0.0000
     49 H          -0.9615    0.7992    3.2601 H       1  UNL1        0.0000
     50 H          -0.9053   -1.9477    1.4870 H       1  UNL1        0.0000
     51 H          -1.8869   -1.5824   -1.3996 H       1  UNL1        0.0000
     52 H          -1.2728    3.2805   -0.4902 H       1  UNL1        0.0000
     53 H           0.2135   -3.5451   -1.6784 H       1  UNL1        0.0000
     54 H          -1.2321    2.1507   -0.4182 H       1  UNL1        0.0000
     55 H           0.7891   -1.4665   -0.7656 H       1  UNL1        0.0000
     56 H           2.8466    1.1462    1.0297 H       1  UNL1        0.0000
     57 H           0.9726   -2.1850   -3.0286 H       1  UNL1        0.0000
     58 H          -1.7293   -1.8062   -3.1238 H       1  UNL1        0.0000
     59 H           0.9760   -0.7756    2.1727 H       1  UNL1        0.0000
     60 H          -2.5229    2.2633   -0.1095 H       1  UNL1        0.0000
     61 H           0.7779    0.9604   -3.1964 H       1  UNL1        0.0000
     62 H           1.8748    1.9403   -3.2720 H       1  UNL1        0.0000
     63 H           1.2084    3.2189   -0.1901 H       1  UNL1        0.0000
     64 H           3.2420   -1.0276   -0.1259 H       1  UNL1        0.0000
     65 H          -1.3308   -3.1534    1.8886 H       1  UNL1        0.0000
     66 H          -1.6942    1.1642    2.3822 H       1  UNL1        0.0000
     67 H           2.3335    1.9164    1.7275 H       1  UNL1        0.0000
     68 EU          1.2636    1.8390    0.3070 Eu      1  UNL1        0.0000
@<TRIPOS>BOND
     1     1     2    2
     2     2     3   am
     3     3     4    1
     4     3     5    1
     5     5     6    1
     6     6     7    1
     7     2     8    1
     8     8     9   ar
     9     9    10   ar
    10     8    11   ar
    11    11    12   ar
    12    12    13   ar
    13    10    13   ar
    14    13    14   ar
    15    14    15   ar
    16    15    16   ar
    17    16    17   ar
    18    12    17   ar
    19    17    18   ar
    20    18    19   ar
    21    19    20    1
    22    20    21   ar
    23    21    22   ar
    24    22    23    1
    25    23    24    1
    26    23    25    1
    27    23    26    1
    28    26    27    1
    29    27    28    1
    30    28    29    1
    31    28    30    1
    32    22    31   ar
    33    28    31    1
    34    31    32   ar
    35    32    33   ar
    36    20    33   ar
    37    19    34   ar
    38    34    35   ar
    39    16    35   ar
    40     4    36    1
    41     4    37    1
    42     4    38    1
    43     5    39    1
    44     5    40    1
    45     6    41    1
    46     6    42    1
    47     7    43    1
    48     7    44    1
    49     7    45    1
    50     9    46    1
    51    10    47    1
    52    14    48    1
    53    15    49    1
    54    24    50    1
    55    24    51    1
    56    24    52    1
    57    25    53    1
    58    25    54    1
    59    25    55    1
    60    26    56    1
    61    26    57    1
    62    27    58    1
    63    27    59    1
    64    29    60    1
    65    29    61    1
    66    29    62    1
    67    30    63    1
    68    30    64    1
    69    30    65    1
    70    34    66    1
    71    35    67    1
    72    68     1    1
    73    68    33    1
    74    68    18    1
    75    68    11    1
@<TRIPOS>MOLECULE
*****
 68 75 0 0 0
SMALL
GASTEIGER

@<TRIPOS>ATOM
      1 O           1.2612   -0.3804   -1.0067 O.2     1  UNL1        0.0000
      2 C          -1.1927   -0.5387   -0.6190 C.2     1  UNL1        0.0000
      3 N          -1.1525   -0.9227    2.1986 N.am    1  UNL1        0.0000
      4 C          -1.2388   -0.6610    2.1961 C.3     1  UNL1        0.0000
      5 C          -0.8803   -0.8073    2.4627 C.3     1  UNL1        0.0000
      6 C           1.4356   -2.0642    2.8409 C.3     1  UNL1        0.0000
      7 C          -1.9554   -3.1365    0.2013 C.3     1  UNL1        0.0000
      8 C          -0.2489    2.4415    0.6302 C.ar    1  UNL1        0.0000
      9 C           1.6409    0.7763    1.0230 C.ar    1  UNL1        0.0000
     10 C          -0.0795   -0.0925   -3.8951 C.ar    1  UNL1        0.0000
     11 N           0.0030    2.6803   -0.1391 N.ar    1  UNL1        0.0000
     12 C           0.7221    2.2595   -2.0048 C.ar    1  UNL1        0.0000
     13 C          -1.6570    0.7643   -2.8628 C.ar    1  UNL1        0.0000
     14 C           0.3881   -2.3908    0.1227 C.ar    1  UNL1        0.0000
     15 C           0.3762   -2.3562    0.1523 C.ar    1  UNL1        0.0000
     16 C           0.4292   -0.8528   -2.2493 C.ar    1  UNL1        0.0000
     17 C           1.6462   -0.6361   -2.2335 C.ar    1  UNL1        0.0000
     18 N           0.8225   -0.5856    0.8159 N.ar    1  UNL1        0.0000
     19 C           0.1561   -0.9806    0.9962 C.ar    1  UNL1        0.0000
     20 C          -0.0006   -1.0527    1.1204 C.ar    1  UNL1        0.0000
     21 N          -1.7878    0.6746   -0.9891 N.ar    1  UNL1        0.0000
     22 C          -0.6098    0.3678   -1.8093 C.ar    1  UNL1        0.0000
     23 C          -1.0334   -3.9108   -0.9036 C.3     1  UNL1        0.0000
     24 C          -1.6769    1.3556    0.5669 C.3     1  UNL1        0.0000
     25 C           1.1275    1.0486   -1.1140 C.3     1  UNL1        0.0000
     26 C          -1.2395    0.4996    0.4330 C.3     1  UNL1        0.0000
     27 C          -2.4995   -0.2629    0.1357 C.3     1  UNL1        0.0000
     28 C           1.8897   -0.7319    1.9054 C.3     1  UNL1        0.0000
     29 C           0.8805    0.5609    2.3078 C.3     1  UNL1        0.0000
     30 C          -1.6732   -1.6133    0.4523 C.3     1  UNL1        0.0000
     31 C          -0.3661    0.7649   -1.7033 C.ar    1  UNL1        0.0000
     32 N          -1.7530    2.7943    1.1007 N.ar    1  UNL1        0.0000
     33 N           0.4443    1.9090    2.0761 N.ar    1  UNL1        0.0000
     34 C          -0.1473    0.0300    1.2914 C.ar    1  UNL1        0.0000
     35 C           0.0498    1.1839   -0.0737 C.ar    1  UNL1        0.0000
     36 H          -2.1152    0.1760    2.9018 H       1  UNL1        0.0000
     37 H          -0.2079   -3.3383    1.6942 H       1  UNL1        0.0000
     38 H          -0.1465    1.5336    3.1149 H       1  UNL1        0.0000
     39 H          -0.2188   -2.5122   -2.4187 H       1  UNL1        0.0000
     40 H          -2.5135   -0.8120    1.3950 H       1  UNL1        0.0000
     41 H           2.2205   -2.1586    1.9643 H       1  UNL1        0.0000
     42 H          -2.5520   -0.4084   -1.2725 H       1  UNL1        0.0000
     43 H          -1.2635    2.4365   -3.7955 H       1  UNL1        0.0000
     44 H           2.2285    1.7133   -0.6622 H       1  UNL1        0.0000
     45 H           2.1455   -1.5033    0.1611 H       1  UNL1        0.0000
     46 H          -2.4671   -1.4305    2.4203 H       1  UNL1        0.0000
     47 H           0.3869   -1.2181   -3.6590 H       1  UNL1        0.0000
     48 H           3.6953   -0.4399   -2.0523 H       1  UNL1        0.0000
     49 H          -0.9615    0.7992    3.2601 H       1  UNL1        0.0000
     50 H          -0.9053   -1.9477    1.4870 H       1  UNL1        0.0000
     51 H          -1.8869   -1.5824   -1.3996 H       1  UNL1        0.0000
     52 H          -1.2728    3.2805   -0.4902 H       1  UNL1        0.0000
     53 H           0.2135   -3.5451   -1.6784 H       1  UNL1        0.0000
     54 H          -1.2321    2.1507   -0.4182 H       1  UNL1        0.0000
     55 H           0.7891   -1.4665   -0.7656 H       1  UNL1        0.0000
     56 H           2.8466    1.1462    1.0297 H       1  UNL1        0.0000
     57 H           0.9726   -2.1850   -3.0286 H       1  UNL1        0.0000
     58 H          -1.7293   -1.8062   -3.1238 H       1  UNL1        0.0000
     59 H           0.9760   -0.7756    2.1727 H       1  UNL1        0.0000
     60 H          -2.5229    2.2633   -0.1095 H       1  UNL1        0.0000
     61 H           0.7779    0.9604   -3.1964 H       1  UNL1        0.0000
     62 H           1.8748    1.9403   -3.2720 H       1  UNL1        0.0000
     63 H           1.2084    3.2189   -0.1901 H       1  UNL1        0.0000
     64 H           3.2420   -1.0276   -0.1259 H       1  UNL1        0.0000
     65 H          -1.3308   -3.1534    1.8886 H       1  UNL1        0.0000
     66 H          -1.6942    1.1642    2.3822 H       1  UNL1        0.0000
     67 H           2.3335    1.9164    1.7275 H       1  UNL1        0.0000
     68 EU          1.2636    1.8390    0.3070 Eu      1  UNL1        0.0000
@<TRIPOS>BOND
     1     1     2    2
     2     2     3   am
     3     3     4    1
     4     3     5    1
     5     5     6    1
     6     6     7    1
     7     2     8    1
     8     8     9   ar
     9     9    10   ar
    10     8    11   ar
    11    11    12   ar
    12    12    13   ar
    13    10    13   ar
    14    13    14   ar
    15    14    15   ar
    16    15    16   ar
    17    16    17   ar
    18    12    17   ar
    19    17    18   ar
    20    18    19   ar
    21    19    20    1
    22    20    21   ar
    23    21    22   ar
    24    22    23    1
    25    23    24    1
    26    23    25    1
    27    23    26    1
    28    26    27    1
    29    27    28    1
    30    28    29    1
    31    28    30    1
    32    22    31   ar
    33    28    31    1
    34    31    32   ar
    35    32    33   ar
    36    20    33   ar
    37    19    34   ar
    38    34    35   ar
    39    16    35   ar
    40     4    36    1
    41     4    37    1
    42     4    38    1
    43     5    39    1
    44     5    40    1
    45     6    41    1
    46     6    42    1
    47     7    43    1
    48     7    44    1
    49     7    45    1
    50     9    46    1
    51    10    47    1
    52    14    48    1
    53    15    49    1
    54    24    50    1
    55    24    51    1
    56    24    52    1
    57    25    53    1
    58    25    54    1
    59    25    55    1
    60    26    56    1
    61    26    57    1
    62    27    58    1
    63    27    59    1
    64    29    60    1
    65    29    61    1
    66    29    62    1
    67    30    63    1
    68    30    64    1
    69    30    65    1
    70    34    66    1
    71    35    67    1
    72    68     1    1
    73    68    33    1
    74    68    18    1
    75    68    11    1
@<TRIPOS>MOLECULE
*****
 68 75 0 0 0
SMALL
GASTEIGER

@<TRIPOS>ATOM
      1 O           1.2612   -0.3804   -1.0067 O.2     1  UNL1        0.0000
      2 C          -1.1927   -0.5387   -0.6190 C.2     1  UNL1        0.0000
      3 N          -1.1525   -0.9227    2.1986 N.am    1  UNL1        0.0000
      4 C          -1.2388   -0.6610    2.1961 C.3     1  UNL1        0.0000
      5 C          -0.8803   -0.8073    2.4627 C.3     1  UNL1        0.0000
      6 C           1.4356   -2.0642    2.8409 C.3     1  UNL1        0.0000
      7 C          -1.9554   -3.1365    0.2013 C.3     1  UNL1        0.0000
      8 C          -0.2489    2.4415    0.6302 C.ar    1  UNL1        0.0000
      9 C           1.6409    0.7763    1.0230 C.ar    1  UNL1        0.0000
     10 C          -0.0795   -0.0925   -3.8951 C.ar    1  UNL1        0.0000
     11 N           0.0030    2.6803   -0.1391 N.ar    1  UNL1        0.0000
     12 C           0.7221    2.2595   -2.0048 C.ar    1  UNL1        0.0000
     13 C          -1.6570    0.7643   -2.8628 C.ar    1  UNL1        0.0000
     14 C           0.3881   -2.3908    0.1227 C.ar    1  UNL1        0.0000
     15 C           0.3762   -2.3562    0.1523 C.ar    1  UNL1        0.0000
     16 C           0.4292   -0.8528   -2.2493 C.ar    1  UNL1        0.0000
     17 C           1.6462   -0.6361   -2.2335 C.ar    1  UNL1        0.0000
     18 N           0.8225   -0.5856    0.8159 N.ar    1  UNL1        0.0000
     19 C           0.1561   -0.9806    0.9962 C.ar    1  UNL1        0.0000
     20 C          -0.0006   -1.0527    1.1204 C.ar    1  UNL1        0.0000
     21 N          -1.7878    0.6746   -0.9891 N.ar    1  UNL1        0.0000
     22 C          -0.6098    0.3678   -1.8093 C.ar    1  UNL1        0.0000
     23 C          -1.0334   -3.9108   -0.9036 C.3     1  UNL1        0.0000
     24 C          -1.6769    1.3556    0.5669 C.3     1  UNL1        0.0000
     25 C           1.1275    1.0486   -1.1140 C.3     1  UNL1        0.0000
     26 C          -1.2395    0.4996    0.4330 C.3     1  UNL1        0.0000
     27 C          -2.4995   -0.2629    0.1357 C.3     1  UNL1        0.0000
     28 C           1.8897   -0.7319    1.9054 C.3     1  UNL1        0.0000
     29 C           0.8805    0.5609    2.3078 C.3     1  UNL1        0.0000
     30 C          -1.6732   -1.6133    0.4523 C.3     1  UNL1        0.0000
     31 C          -0.3661    0.7649   -1.7033 C.ar    1  UNL1        0.0000
     32 N          -1.7530    2.7943    1.1007 N.ar    1  UNL1        0.0000
     33 N           0.4443    1.9090    2.0761 N.ar    1  UNL1        0.0000
     34 C          -0.1473    0.0300    1.2914 C.ar    1  UNL1        0.0000
     35 C           0.0498    1.1839   -0.0737 C.ar    1  UNL1        0.0000
     36 H          -2.1152    0.1760    2.9018 H       1  UNL1        0.0000
     37 H          -0.2079   -3.3383    1.6942 H       1  UNL1        0.0000
     38 H          -0.1465    1.5336    3.1149 H       1  UNL1        0.0000
     39 H          -0.2188   -2.5122   -2.4187 H       1  UNL1        0.0000
     40 H          -2.5135   -0.8120    1.3950 H       1  UNL1        0.0000
     41 H           2.2205   -2.1586    1.9643 H       1  UNL1        0.0000
     42 H          -2.5520   -0.4084   -1.2725 H       1  UNL1        0.0000
     43 H          -1.2635    2.4365   -3.7955 H       1  UNL1        0.0000
     44 H           2.2285    1.7133   -0.6622 H       1  UNL1        0.0000
     45 H           2.1455   -1.5033    0.1611 H       1  UNL1        0.0000
     46 H          -2.4671   -1.4305    2.4203 H       1  UNL1        0.0000
     47 H           0.3869   -1.2181   -3.6590 H       1  UNL1        0.0000
     48 H           3.6953   -0.4399   -2.0523 H       1  UNL1        0.0000
     49 H          -0.9615    0.7992    3.2601 H       1  UNL1        0.0000
     50 H          -0.9053   -1.9477    1.4870 H       1  UNL1        0.0000
     51 H          -1.8869   -1.5824   -1.3996 H       1  UNL1        0.0000
     52 H          -1.2728    3.2805   -0.4902 H       1  UNL1        0.0000
     53 H           0.2135   -3.5451   -1.6784 H       1  UNL1        0.0000
     54 H          -1.2321    2.1507   -0.4182 H       1  UNL1        0.0000
     55 H           0.7891   -1.4665   -0.7656 H       1  UNL1        0.0000
     56 H           2.8466    1.1462    1.0297 H       1  UNL1        0.0000
     57 H           0.9726   -2.1850   -3.0286 H       1  UNL1        0.0000
     58 H          -1.7293   -1.8062   -3.1238 H       1  UNL1        0.0000
     59 H           0.9760   -0.7756    2.1727 H       1  UNL1        0.0000
     60 H          -2.5229    2.2633   -0.1095 H       1  UNL1        0.0000
     61 H           0.7779    0.9604   -3.1964 H       1  UNL1        0.0000
     62 H           1.8748    1.9403   -3.2720 H       1  UNL1        0.0000
     63 H           1.2084    3.2189   -0.1901 H       1  UNL1        0.0000
     64 H           3.2420   -1.0276   -0.1259 H       1  UNL1        0.0000
     65 H          -1.3308   -3.1534    1.8886 H       1  UNL1        0.0000
     66 H          -1.6942    1.1642    2.3822 H       1  UNL1        0.0000
     67 H           2.3335    1.9164    1.7275 H       1  UNL1        0.0000
     68 EU          1.2636    1.8390    0.3070 Eu      1  UNL1        0.0000
@<TRIPOS>BOND
     1     1     2    2
     2     2     3   am
     3     3     4    1
     4     3     5    1
     5     5     6    1
     6     6     7    1
     7     2     8    1
     8     8     9   ar
     9     9    10   ar
    10     8    11   ar
    11    11    12   ar
    12    12    13   ar
    13    10    13   ar
    14    13    14   ar
    15    14    15   ar
    16    15    16   ar
    17    16    17   ar
    18    12    17   ar
    19    17    18   ar
    20    18    19   ar
    21    19    20    1
    22    20    21   ar
    23    21    22   ar
    24    22    23    1
    25    23    24    1
    26    23    25    1
    27    23    26    1
    28    26    27    1
    29    27    28    1
    30    28    29    1
    31    28    30    1
    32    22    31   ar
    33    28    31    1
    34    31    32   ar
    35    32    33   ar
    36    20    33   ar
    37    19    34   ar
    38    34    35   ar
    39    16    35   ar
    40     4    36    1
    41     4    37    1
    42     4    38    1
    43     5    39    1
    44     5    40    1
    45     6    41    1
    46     6    42    1
    47     7    43    1
    48     7    44    1
    49     7    45    1
    50     9    46    1
    51    10    47    1
    52    14    48    1
    53    15    49    1
    54    24    50    1
    55    24    51    1
    56    24    52    1
    57    25    53    1
    58    25    54    1
    59    25    55    1
    60    26    56    1
    61    26    57    1
    62    27    58    1
    63    27    59    1
    64    29    60    1
    65    29    61    1
    66    29    62    1
    67    30    63    1
    68    30    64    1
    69    30    65    1
    70    34    66    1
    71    35    67    1
    72    68     1    1
    73    68    33    1
    74    68    18    1
    75    68    11    1
@<TRIPOS>MOLECULE
*****
 68 75 0 0 0
SMALL
GASTEIGER

@<TRIPOS>ATOM
      1 O           1.2612   -0.3804   -1.0067 O.2     1  UNL1        0.0000
      2 C          -1.1927   -0.5387   -0.6190 C.2     1  UNL1        0.0000
      3 N          -1.1525   -0.9227    2.1986 N.am    1  UNL1        0.0000
      4 C          -1.2388   -0.6610    2.1961 C.3     1  UNL1        0.0000
      5 C          -0.8803   -0.8073    2.4627 C.3     1  UNL1        0.0000
      6 C           1.4356   -2.0642    2.8409 C.3     1  UNL1        0.0000
      7 C          -1.9554   -3.1365    0.2013 C.3     1  UNL1        0.0000
      8 C          -0.2489    2.4415    0.6302 C.ar    1  UNL1        0.0000
      9 C           1.6409    0.7763    1.0230 C.ar    1  UNL1        0.0000
     10 C          -0.0795   -0.0925   -3.8951 C.ar    1  UNL1        0.0000
     11 N           0.0030    2.6803   -0.1391 N.ar    1  UNL1        0.0000
     12 C           0.7221    2.2595   -2.0048 C.ar    1  UNL1        0.0000
     13 C          -1.6570    0.7643   -2.8628 C.ar    1  UNL1        0.0000
     14 C           0.3881   -2.3908    0.1227 C.ar    1  UNL1        0.0000
     15 C           0.3762   -2.3562    0.1523 C.ar    1  UNL1        0.0000
     16 C           0.4292   -0.8528   -2.2493 C.ar    1  UNL1        0.0000
     17 C           1.6462   -0.6361   -2.2335 C.ar    1  UNL1        0.0000
     18 N           0.8225   -0.5856    0.8159 N.ar    1  UNL1        0.0000
     19 C           0.1561   -0.9806    0.9962 C.ar    1  UNL1        0.0000
     20 C          -0.0006   -1.0527    1.1204 C.ar    1  UNL1        0.0000
     21 N          -1.7878    0.6746   -0.9891 N.ar    1  UNL1        0.0000
     22 C          -0.6098    0.3678   -1.8093 C.ar    1  UNL1        0.0000
     23 C          -1.0334   -3.9108   -0.9036 C.3     1  UNL1        0.0000
     24 C          -1.6769    1.3556    0.5669 C.3     1  UNL1        0.0000
     25 C           1.1275    1.0486   -1.1140 C.3     1  UNL1        0.0000
     26 C          -1.2395    0.4996    0.4330 C.3     1  UNL1        0.0000
     27 C          -2.4995   -0.2629    0.1357 C.3     1  UNL1        0.0000
     28 C           1.8897   -0.7319    1.9054 C.3     1  UNL1        0.0000
     29 C           0.8805    0.5609    2.3078 C.3     1  UNL1        0.0000
     30 C          -1.6732   -1.6133    0.4523 C.3     1  UNL1        0.0000
     31 C          -0.3661    0.7649   -1.7033 C.ar    1  UNL1        0.0000
     32 N          -1.7530    2.7943    1.1007 N.ar    1  UNL1        0.0000
     33 N           0.4443    1.9090    2.0761 N.ar    1  UNL1        0.0000
     34 C          -0.1473    0.0300    1.2914 C.ar    1  UNL1        0.0000
     35 C           0.0498    1.1839   -0.0737 C.ar    1  UNL1        0.0000
     36 H          -2.1152    0.1760    2.9018 H       1  UNL1        0.0000
     37 H          -0.2079   -3.3383    1.6942 H       1  UNL1        0.0000
     38 H          -0.1465    1.5336    3.1149 H       1  UNL1        0.0000
     39 H          -0.2188   -2.5122   -2.4187 H       1  UNL1        0.0000
     40 H          -2.5135   -0.8120    1.3950 H       1  UNL1        0.0000
     41 H           2.2205   -2.1586    1.9643 H       1  UNL1        0.0000
     42 H          -2.5520   -0.4084   -1.2725 H       1  UNL1        0.0000
     43 H          -1.2635    2.4365   -3.7955 H       1  UNL1        0.0000
     44 H           2.2285    1.7133   -0.6622 H       1  UNL1        0.0000
     45 H           2.1455   -1.5033    0.1611 H       1  UNL1        0.0000
     46 H          -2.4671   -1.4305    2.4203 H       1  UNL1        0.0000
     47 H           0.3869   -1.2181   -3.6590 H       1  UNL1        0.0000
     48 H           3.6953   -0.4399   -2.0523 H       1  UNL1        0.0000
     49 H          -0.9615    0.7992    3.2601 H       1  UNL1        0.0000
     50 H          -0.9053   -1.9477    1.4870 H       1  UNL1        0.0000
     51 H          -1.8869   -1.5824   -1.3996 H       1  UNL1        0.0000
     52 H          -1.2728    3.2805   -0.4902 H       1  UNL1        0.0000
     53 H           0.2135   -3.5451   -1.6784 H       1  UNL1        0.0000
     54 H          -1.2321    2.1507   -0.4182 H       1  UNL1        0.0000
     55 H           0.7891   -1.4665   -0.7656 H       1  UNL1        0.0000
     56 H           2.8466    1.1462    1.0297 H       1  UNL1        0.0000
     57 H           0.9726   -2.1850   -3.0286 H       1  UNL1        0.0000
     58 H          -1.7293   -1.8062   -3.1238 H       1  UNL1        0.0000
     59 H           0.9760   -0.7756    2.1727 H       1  UNL1        0.0000
     60 H          -2.5229    2.2633   -0.1095 H       1  UNL1        0.0000
     61 H           0.7779    0.9604   -3.1964 H       1  UNL1        0.0000
     62 H           1.8748    1.9403   -3.2720 H       1  UNL1        0.0000
     63 H           1.2084    3.2189   -0.1901 H       1  UNL1        0.0000
     64 H           3.2420   -1.0276   -0.1259 H       1  UNL1        0.0000
     65 H          -1.3308   -3.1534    1.8886 H       1  UNL1        0.0000
     66 H          -1.6942    1.1642    2.3822 H       1  UNL1        0.0000
     67 H           2.3335    1.9164    1.7275 H       1  UNL1        0.0000
     68 EU          1.2636    1.8390    0.3070 Eu      1  UNL1        0.0000
@<TRIPOS>BOND
     1     1     2    2
     2     2     3   am
     3     3     4    1
     4     3     5    1
     5     5     6    1
     6     6     7    1
     7     2     8    1
     8     8     9   ar
     9     9    10   ar
    10     8    11   ar
    11    11    12   ar
    12    12    13   ar
    13    10    13   ar
    14    13    14   ar
    15    14    15   ar
    16    15    16   ar
    17    16    17   ar
    18    12    17   ar
    19    17    18   ar
    20    18    19   ar
    21    19    20    1
    22    20    21   ar
    23    21    22   ar
    24    22    23    1
    25    23    24    1
    26    23    25    1
    27    23    26    1
    28    26    27    1
    29    27    28    1
    30    28    29    1
    31    28    30    1
    32    22    31   ar
    33    28    31    1
    34    31    32   ar
    35    32    33   ar
    36    20    33   ar
    37    19    34   ar
    38    34    35   ar
    39    16    35   ar
    40     4    36    1
    41     4    37    1
    42     4    38    1
    43     5    39    1
    44     5    40    1
    45     6    41    1
    46     6    42    1
    47     7    43    1
    48     7    44    1
    49     7    45    1
    50     9    46    1
    51    10    47    1
    52    14    48    1
    53    15    49    1
    54    24    50    1
    55    24    51    1
    56    24    52    1
    57    25    53    1
    58    25    54    1
    59    25    55    1
    60    26    56    1
    61    26    57    1
    62    27    58    1
    63    27    59    1
    64    29    60    1
    65    29    61    1
    66    29    62    1
    67    30    63    1
    68    30    64    1
    69    30    65    1
    70    34    66    1
    71    35    67    1
    72    68     1    1
    73    68    33    1
    74    68    18    1
    75    68    11    1
@<TRIPOS>MOLECULE
*****
 68 75 0 0 0
SMALL
GASTEIGER

@<TRIPOS>ATOM
      1 O           1.2612   -0.3804   -1.0067 O.2     1  UNL1        0.0000
      2 C          -1.1927   -0.5387   -0.6190 C.2     1  UNL1        0.0000
      3 N          -1.1525   -0.9227    2.1986 N.am    1  UNL1        0.0000
      4 C          -1.2388   -0.6610    2.1961 C.3     1  UNL1        0.0000
      5 C          -0.8803   -0.8073    2.4627 C.3     1  UNL1        0.0000
      6 C           1.4356   -2.0642    2.8409 C.3     1  UNL1        0.0000
      7 C          -1.9554   -3.1365    0.2013 C.3     1  UNL1        0.0000
      8 C          -0.2489    2.4415    0.6302 C.ar    1  UNL1        0.0000
      9 C           1.6409    0.7763    1.0230 C.ar    1  UNL1        0.0000
     10 C          -0.0795   -0.0925   -3.8951 C.ar    1  UNL1        0.0000
     11 N           0.0030    2.6803   -0.1391 N.ar    1  UNL1        0.0000
     12 C           0.7221    2.2595   -2.0048 C.ar    1  UNL1        0.0000
     13 C          -1.6570    0.7643   -2.8628 C.ar    1  UNL1        0.0000
     14 C           0.3881   -2.3908    0.1227 C.ar    1  UNL1        0.0000
     15 C           0.3762   -2.3562    0.1523 C.ar    1  UNL1        0.0000
     16 C           0.4292   -0.8528   -2.2493 C.ar    1  UNL1        0.0000
     17 C           1.6462   -0.6361   -2.2335 C.ar    1  UNL1        0.0000
     18 N           0.8225   -0.5856    0.8159 N.ar    1  UNL1        0.0000
     19 C           0.1561   -0.9806    0.9962 C.ar    1  UNL1        0.0000
     20 C          -0.0006   -1.0527    1.1204 C.ar    1  UNL1        0.0000
     21 N          -1.7878    0.6746   -0.9891 N.ar    1  UNL1        0.0000
     22 C          -0.6098    0.3678   -1.8093 C.ar    1  UNL1        0.0000
     23 C          -1.0334   -3.9108   -0.9036 C.3     1  UNL1        0.0000
     24 C          -1.6769    1.3556    0.5669 C.3     1  UNL1        0.0000
     25 C           1.1275    1.0486   -1.1140 C.3     1  UNL1        0.0000
     26 C          -1.2395    0.4996    0.4330 C.3     1  UNL1        0.0000
     27 C          -2.4995   -0.2629    0.1357 C.3     1  UNL1        0.0000
     28 C           1.8897   -0.7319    1.9054 C.3     1  UNL1        0.0000
     29 C           0.8805    0.5609    2.3078 C.3     1  UNL1        0.0000
     30 C          -1.6732   -1.6133    0.4523 C.3     1  UNL1        0.0000
     31 C          -0.3661    0.7649   -1.7033 C.ar    1  UNL1        0.0000
     32 N          -1.7530    2.7943    1.1007 N.ar    1  UNL1        0.0000
     33 N           0.4443    1.9090    2.0761 N.ar    1  UNL1        0.0000
     34 C          -0.1473    0.0300    1.2914 C.ar    1  UNL1        0.0000
     35 C           0.0498    1.1839   -0.0737 C.ar    1  UNL1        0.0000
     36 H          -2.1152    0.1760    2.9018 H       1  UNL1        0.0000
     37 H          -0.2079   -3.3383    1.6942 H       1  UNL1        0.0000
     38 H          -0.1465    1.5336    3.1149 H       1  UNL1        0.0000
     39 H          -0.2188   -2.5122   -2.4187 H       1  UNL1        0.0000
     40 H          -2.5135   -0.8120    1.3950 H       1  UNL1        0.0000
     41 H           2.2205   -2.1586    1.9643 H       1  UNL1        0.0000
     42 H          -2.5520   -0.4084   -1.2725 H       1  UNL1        0.0000
     43 H          -1.2635    2.4365   -3.7955 H       1  UNL1        0.0000
     44 H           2.2285    1.7133   -0.6622 H       1  UNL1        0.0000
     45 H           2.1455   -1.5033    0.1611 H       1  UNL1        0.0000
     46 H          -2.4671   -1.4305    2.4203 H       1  UNL1        0.0000
     47 H           0.3869   -1.2181   -3.6590 H       1  UNL1        0.0000
     48 H           3.6953   -0.4399   -2.0523 H       1  UNL1        0.0000
     49 H          -0.9615    0.7992    3.2601 H       1  UNL1        0.0000
     50 H          -0.9053   -1.9477    1.4870 H       1  UNL1        0.0000
     51 H          -1.8869   -1.5824   -1.3996 H       1  UNL1        0.0000
     52 H          -1.2728    3.2805   -0.4902 H       1  UNL1        0.0000
     53 H           0.2135   -3.5451   -1.6784 H       1  UNL1        0.0000
     54 H          -1.2321    2.1507   -0.4182 H       1  UNL1        0.0000
     55 H           0.7891   -1.4665   -0.7656 H       1  UNL1        0.0000
     56 H           2.8466    1.1462    1.0297 H       1  UNL1        0.0000
     57 H           0.9726   -2.1850   -3.0286 H       1  UNL1        0.0000
     58 H          -1.7293   -1.8062   -3.1238 H       1  UNL1        0.0000
     59 H           0.9760   -0.7756    2.1727 H       1  UNL1        0.0000
     60 H          -2.5229    2.2633   -0.1095 H       1  UNL1        0.0000
     61 H           0.7779    0.9604   -3.1964 H       1  UNL1        0.0000
     62 H           1.8748    1.9403   -3.2720 H       1  UNL1        0.0000
     63 H           1.2084    3.2189   -0.1901 H       1  UNL1        0.0000
     64 H           3.2420   -1.0276   -0.1259 H       1  UNL1        0.0000
     65 H          -1.3308   -3.1534    1.8886 H       1  UNL1        0.0000
     66 H          -1.6942    1.1642    2.3822 H       1  UNL1        0.0000
     67 H           2.3335    1.9164    1.7275 H       1  UNL1        0.0000
     68 EU          1.2636    1.8390    0.3070 Eu      1  UNL1        0.0000
@<TRIPOS>BOND
     1     1     2    2
     2     2     3   am
     3     3     4    1
     4     3     5    1
     5     5     6    1
     6     6     7    1
     7     2     8    1
     8     8     9   ar
     9     9    10   ar
    10     8    11   ar
    11    11    12   ar
    12    12    13   ar
    13    10    13   ar
    14    13    14   ar
    15    14    15   ar
    16    15    16   ar
    17    16    17   ar
    18    12    17   ar
    19    17    18   ar
    20    18    19   ar
    21    19    20    1
    22    20    21   ar
    23    21    22   ar
    24    22    23    1
    25    23    24    1
    26    23    25    1
    27    23    26    1
    28    26    27    1
    29    27    28    1
    30    28    29    1
    31    28    30    1
    32    22    31   ar
    33    28    31    1
    34    31    32   ar
    35    32    33   ar
    36    20    33   ar
    37    19    34   ar
    38    34    35   ar
    39    16    35   ar
    40     4    36    1
    41     4    37    1
    42     4    38    1
    43     5    39    1
    44     5    40    1
    45     6    41    1
    46     6    42    1
    47     7    43    1
    48     7    44    1
    49     7    45    1
    50     9    46    1
    51    10    47    1
    52    14    48    1
    53    15    49    1
    54    24    50    1
    55    24    51    1
    56    24    52    1
    57    25    53    1
    58    25    54    1
    59    25    55    1
    60    26    56    1
    61    26    57    1
    62    27    58    1
    63    27    59    1
    64    29    60    1
    65    29    61    1
    66    29    62    1
    67    30    63    1
    68    30    64    1
    69    30    65    1
    70    34    66    1
    71    35    67    1
    72    68     1    1
    73    68    33    1
    74    68    18    1
    75    68    11    1
@<TRIPOS>MOLECULE
*****
 68 75 0 0 0
SMALL
GASTEIGER

@<TRIPOS>ATOM
      1 O           1.2612   -0.3804   -1.0067 O.2     1  UNL1        0.0000
      2 C          -1.1927   -0.5387   -0.6190 C.2     1  UNL1        0.0000
      3 N          -1.1525   -0.9227    2.1986 N.am    1  UNL1        0.0000
      4 C          -1.2388   -0.6610    2.1961 C.3     1  UNL1        0.0000
      5 C          -0.8803   -0.8073    2.4627 C.3     1  UNL1        0.0000
      6 C           1.4356   -2.0642    2.8409 C.3     1  UNL1        0.0000
      7 C          -1.9554   -3.1365    0.2013 C.3     1  UNL1        0.0000
      8 C          -0.2489    2.4415    0.6302 C.ar    1  UNL1        0.0000
      9 C           1.6409    0.7763    1.0230 C.ar    1  UNL1        0.0000
     10 C          -0.0795   -0.0925   -3.8951 C.ar    1  UNL1        0.0000
     11 N           0.0030    2.6803   -0.1391 N.ar    1  UNL1        0.0000
     12 C           0.7221    2.2595   -2.0048 C.ar    1  UNL1        0.0000
     13 C          -1.6570    0.7643   -2.8628 C.ar    1  UNL1        0.0000
     14 C           0.3881   -2.3908    0.1227 C.ar    1  UNL1        0.0000
     15 C           0.3762   -2.3562    0.1523 C.ar    1  UNL1        0.0000
     16 C           0.4292   -0.8528   -2.2493 C.ar    1  UNL1        0.0000
     17 C           1.6462   -0.6361   -2.2335 C.ar    1  UNL1        0.0000
     18 N           0.8225   -0.5856    0.8159 N.ar    1  UNL1        0.0000
     19 C           0.1561   -0.9806    0.9962 C.ar    1  UNL1        0.0000
     20 C          -0.0006   -1.0527    1.1204 C.ar    1  UNL1        0.0000
     21 N          -1.7878    0.6746   -0.9891 N.ar    1  UNL1        0.0000
     22 C          -0.6098    0.3678   -1.8093 C.ar    1  UNL1        0.0000
     23 C          -1.0334   -3.9108   -0.9036 C.3     1  UNL1        0.0000
     24 C          -1.6769    1.3556    0.5669 C.3     1  UNL1        0.0000
     25 C           1.1275    1.0486   -1.1140 C.3     1  UNL1        0.0000
     26 C          -1.2395    0.4996    0.4330 C.3     1  UNL1        0.0000
     27 C          -2.4995   -0.2629    0.1357 C.3     1  UNL1        0.0000
     28 C           1.8897   -0.7319    1.9054 C.3     1  UNL1        0.0000
     29 C           0.8805    0.5609    2.3078 C.3     1  UNL1        0.0000
     30 C          -1.6732   -1.6133    0.4523 C.3     1  UNL1        0.0000
     31 C          -0.3661    0.7649   -1.7033 C.ar    1  UNL1        0.0000
     32 N          -1.7530    2.7943    1.1007 N.ar    1  UNL1        0.0000
     33 N           0.4443    1.9090    2.0761 N.ar    1  UNL1        0.0000
     34 C          -0.1473    0.0300    1.2914 C.ar    1  UNL1        0.0000
     35 C           0.0498    1.1839   -0.0737 C.ar    1  UNL1        0.0000
     36 H          -2.1152    0.1760    2.9018 H       1  UNL1        0.0000
     37 H          -0.2079   -3.3383    1.6942 H       1  UNL1        0.0000
     38 H          -0.1465    1.5336    3.1149 H       1  UNL1        0.0000
     39 H          -0.2188   -2.5122   -2.4187 H       1  UNL1        0.0000
     40 H          -2.5135   -0.8120    1.3950 H       1  UNL1        0.0000
     41 H           2.2205   -2.1586    1.9643 H       1  UNL1        0.0000
     42 H          -2.5520   -0.4084   -1.2725 H       1  UNL1        0.0000
     43 H          -1.2635    2.4365   -3.7955 H       1  UNL1        0.0000
     44 H           2.2285    1.7133   -0.6622 H       1  UNL1        0.0000
     45 H           2.1455   -1.5033    0.1611 H       1  UNL1        0.0000
     46 H          -2.4671   -1.4305    2.4203 H       1  UNL1        0.0000
     47 H           0.3869   -1.2181   -3.6590 H       1  UNL1        0.0000
     48 H           3.6953   -0.4399   -2.0523 H       1  UNL1        0.0000
     49 H          -0.9615    0.7992    3.2601 H       1  UNL1        0.0000
     50 H          -0.9053   -1.9477    1.4870 H       1  UNL1        0.0000
     51 H          -1.8869   -1.5824   -1.3996 H       1  UNL1        0.0000
     52 H          -1.2728    3.2805   -0.4902 H       1  UNL1        0.0000
     53 H           0.2135   -3.5451   -1.6784 H       1  UNL1        0.0000
     54 H          -1.2321    2.1507   -0.4182 H       1  UNL1        0.0000
     55 H           0.7891   -1.4665   -0.7656 H       1  UNL1        0.0000
     56 H           2.8466    1.1462    1.0297 H       1  UNL1        0.0000
     57 H           0.9726   -2.1850   -3.0286 H       1  UNL1        0.0000
     58 H          -1.7293   -1.8062   -3.1238 H       1  UNL1        0.0000
     59 H           0.9760   -0.7756    2.1727 H       1  UNL1        0.0000
     60 H          -2.5229    2.2633   -0.1095 H       1  UNL1        0.0000
     61 H           0.7779    0.9604   -3.1964 H       1  UNL1        0.0000
     62 H           1.8748    1.9403   -3.2720 H       1  UNL1        0.0000
     63 H           1.2084    3.2189   -0.1901 H       1  UNL1        0.0000
     64 H           3.2420   -1.0276   -0.1259 H       1  UNL1        0.0000
     65 H          -1.3308   -3.1534    1.8886 H       1  UNL1        0.0000
     66 H          -1.6942    1.1642    2.3822 H       1  UNL1        0.0000
     67 H           2.3335    1.9164    1.7275 H       1  UNL1        0.0000
     68 EU          1.2636    1.8390    0.3070 Eu      1  UNL1        0.0000
@<TRIPOS>BOND
     1     1     2    2
     2     2     3   am
     3     3     4    1
     4     3     5    1
     5     5     6    1
     6     6     7    1
     7     2     8    1
     8     8     9   ar
     9     9    10   ar
    10     8    11   ar
    11    11    12   ar
    12    12    13   ar
    13    10    13   ar
    14    13    14   ar
    15    14    15   ar
    16    15    16   ar
    17    16    17   ar
    18    12    17   ar
    19    17    18   ar
    20    18    19   ar
    21    19    20    1
    22    20    21   ar
    23    21    22   ar
    24    22    23    1
    25    23    24    1
    26    23    25    1
    27    23    26    1
    28    26    27    1
    29    27    28    1
    30    28    29    1
    31    28    30    1
    32    22    31   ar
    33    28    31    1
    34    31    32   ar
    35    32    33   ar
    36    20    33   ar
    37    19    34   ar
    38    34    35   ar
    39    16    35   ar
    40     4    36    1
    41     4    37    1
    42     4    38    1
    43     5    39    1
    44     5    40    1
    45     6    41    1
    46     6    42    1
    47     7    43    1
    48     7    44    1
    49     7    45    1
    50     9    46    1
    51    10    47    1
    52    14    48    1
    53    15    49    1
    54    24    50    1
    55    24    51    1
    56    24    52    1
    57    25    53    1
    58    25    54    1
    59    25    55    1
    60    26    56    1
    61    26    57    1
    62    27    58    1
    63    27    59    1
    64    29    60    1
    65    29    61    1
    66    29    62    1
    67    30    63    1
    68    30    64    1
    69    30    65    1
    70    34    66    1
    71    35    67    1
    72    68     1    1
    73    68    33    1
    74    68    18    1
    75    68    11    1
@<TRIPOS>MOLECULE
*****
 68 75 0 0 0
SMALL
GASTEIGER

@<TRIPOS>ATOM
      1 O           1.2612   -0.3804   -1.0067 O.2     1  UNL1        0.0000
      2 C          -1.1927   -0.5387   -0.6190 C.2     1  UNL1        0.0000
      3 N          -1.1525   -0.9227    2.1986 N.am    1  UNL1        0.0000
      4 C          -1.2388   -0.6610    2.1961 C.3     1  UNL1        0.0000
      5 C          -0.8803   -0.8073    2.4627 C.3     1  UNL1        0.0000
      6 C           1.4356   -2.0642    2.8409 C.3     1  UNL1        0.0000
      7 C          -1.9554   -3.1365    0.2013 C.3     1  UNL1        0.0000
      8 C          -0.2489    2.4415    0.6302 C.ar    1  UNL1        0.0000
      9 C           1.6409    0.7763    1.0230 C.ar    1  UNL1        0.0000
     10 C          -0.0795   -0.0925   -3.8951 C.ar    1  UNL1        0.0000
     11 N           0.0030    2.6803   -0.1391 N.ar    1  UNL1        0.0000
     12 C           0.7221    2.2595   -2.0048 C.ar    1  UNL1        0.0000
     13 C          -1.6570    0.7643   -2.8628 C.ar    1  UNL1        0.0000
     14 C           0.3881   -2.3908    0.1227 C.ar    1  UNL1        0.0000
     15 C           0.3762   -2.3562    0.1523 C.ar    1  UNL1        0.0000
     16 C           0.4292   -0.8528   -2.2493 C.ar    1  UNL1        0.0000
     17 C           1.6462   -0.6361   -2.2335 C.ar    1  UNL1        0.0000
     18 N           0.8225   -0.5856    0.8159 N.ar    1  UNL1        0.0000
     19 C           0.1561   -0.9806    0.9962 C.ar    1  UNL1        0.0000
     20 C          -0.0006   -1.0527    1.1204 C.ar    1  UNL1        0.0000
     21 N          -1.7878    0.6746   -0.9891 N.ar    1  UNL1        0.0000
     22 C          -0.6098    0.3678   -1.8093 C.ar    1  UNL1        0.0000
     23 C          -1.0334   -3.9108   -0.9036 C.3     1  UNL1        0.0000
     24 C          -1.6769    1.3556    0.5669 C.3     1  UNL1        0.0000
     25 C           1.1275    1.0486   -1.1140 C.3     1  UNL1        0.0000
     26 C          -1.2395    0.4996    0.4330 C.3     1  UNL1        0.0000
     27 C          -2.4995   -0.2629    0.1357 C.3     1  UNL1        0.0000
     28 C           1.8897   -0.7319    1.9054 C.3     1  UNL1        0.0000
     29 C           0.8805    0.5609    2.3078 C.3     1  UNL1        0.0000
     30 C          -1.6732   -1.6133    0.4523 C.3     1  UNL1        0.0000
     31 C          -0.3661    0.7649   -1.7033 C.ar    1  UNL1        0.0000
     32 N          -1.7530    2.7943    1.1007 N.ar    1  UNL1        0.0000
     33 N           0.4443    1.9090    2.0761 N.ar    1  UNL1        0.0000
     34 C          -0.1473    0.0300    1.2914 C.ar    1  UNL1        0.0000
     35 C           0.0498    1.1839   -0.0737 C.ar    1  UNL1        0.0000
     36 H          -2.1152    0.1760    2.9018 H       1  UNL1        0.0000
     37 H          -0.2079   -3.3383    1.6942 H       1  UNL1        0.0000
     38 H          -0.1465    1.5336    3.1149 H       1  UNL1        0.0000
     39 H          -0.2188   -2.5122   -2.4187 H       1  UNL1        0.0000
     40 H          -2.5135   -0.8120    1.3950 H       1  UNL1        0.0000
     41 H           2.2205   -2.1586    1.9643 H       1  UNL1        0.0000
     42 H          -2.5520   -0.4084   -1.2725 H       1  UNL1        0.0000
     43 H          -1.2635    2.4365   -3.7955 H       1  UNL1        0.0000
     44 H           2.2285    1.7133   -0.6622 H       1  UNL1        0.0000
     45 H           2.1455   -1.5033    0.1611 H       1  UNL1        0.0000
     46 H          -2.4671   -1.4305    2.4203 H       1  UNL1        0.0000
     47 H           0.3869   -1.2181   -3.6590 H       1  UNL1        0.0000
     48 H           3.6953   -0.4399   -2.0523 H       1  UNL1        0.0000
     49 H          -0.9615    0.7992    3.2601 H       1  UNL1        0.0000
     50 H          -0.9053   -1.9477    1.4870 H       1  UNL1        0.0000
     51 H          -1.8869   -1.5824   -1.3996 H       1  UNL1        0.0000
     52 H          -1.2728    3.2805   -0.4902 H       1  UNL1        0.0000
     53 H           0.2135   -3.5451   -1.6784 H       1  UNL1        0.0000
     54 H          -1.2321    2.1507   -0.4182 H       1  UNL1        0.0000
     55 H           0.7891   -1.4665   -0.7656 H       1  UNL1        0.0000
     56 H           2.8466    1.1462    1.0297 H       1  UNL1        0.0000
     57 H           0.9726   -2.1850   -3.0286 H       1  UNL1        0.0000
     58 H          -1.7293   -1.8062   -3.1238 H       1  UNL1        0.0000
     59 H           0.9760   -0.7756    2.1727 H       1  UNL1        0.0000
     60 H          -2.5229    2.2633   -0.1095 H       1  UNL1        0.0000
     61 H           0.7779    0.9604   -3.1964 H       1  UNL1        0.0000
     62 H           1.8748    1.9403   -3.2720 H       1  UNL1        0.0000
     63 H           1.2084    3.2189   -0.1901 H       1  UNL1        0.0000
     64 H           3.2420   -1.0276   -0.1259 H       1  UNL1        0.0000
     65 H          -1.3308   -3.1534    1.8886 H       1  UNL1        0.0000
     66 H          -1.6942    1.1642    2.3822 H       1  UNL1        0.0000
     67 H           2.3335    1.9164    1.7275 H       1  UNL1        0.0000
     68 EU          1.2636    1.8390    0.3070 Eu      1  UNL1        0.0000
@<TRIPOS>BOND
     1     1     2    2
     2     2     3   am
     3     3     4    1
     4     3     5    1
     5     5     6    1
     6     6     7    1
     7     2     8    1
     8     8     9   ar
     9     9    10   ar
    10     8    11   ar
    11    11    12   ar
    12    12    13   ar
    13    10    13   ar
    14    13    14   ar
    15    14    15   ar
    16    15    16   ar
    17    16    17   ar
    18    12    17   ar
    19    17    18   ar
    20    18    19   ar
    21    19    20    1
    22    20    21   ar
    23    21    22   ar
    24    22    23    1
    25    23    24    1
    26    23    25    1
    27    23    26    1
    28    26    27    1
    29    27    28    1
    30    28    29    1
    31    28    30    1
    32    22    31   ar
    33    28    31    1
    34    31    32   ar
    35    32    33   ar
    36    20    33   ar
    37    19    34   ar
    38    34    35   ar
    39    16    35   ar
    40     4    36    1
    41     4    37    1
    42     4    38    1
    43     5    39    1
    44     5    40    1
    45     6    41    1
    46     6    42    1
    47     7    43    1
    48     7    44    1
    49     7    45    1
    50     9    46    1
    51    10    47    1
    52    14    48    1
    53    15    49    1
    54    24    50    1
    55    24    51    1
    56    24    52    1
    57    25    53    1
    58    25    54    1
    59    25    55    1
    60    26    56    1
    61    26    57    1
    62    27    58    1
    63    27    59    1
    64    29    60    1
    65    29    61    1
    66    29    62    1
    67    30    63    1
    68    30    64    1
    69    30    65    1
    70    34    66    1
    71    35    67    1
    72    68     1    1
    73    68    33    1
    74    68    18    1
    75    68    11    1
@<TRIPOS>MOLECULE
*****
 68 75 0 0 0
SMALL
GASTEIGER

@<TRIPOS>ATOM
      1 O           1.2612   -0.3804   -1.0067 O.2     1  UNL1        0.0000
      2 C          -1.1927   -0.5387   -0.6190 C.2     1  UNL1        0.0000
      3 N          -1.1525   -0.9227    2.1986 N.am    1  UNL1        0.0000
      4 C          -1.2388   -0.6610    2.1961 C.3     1  UNL1        0.0000
      5 C          -0.8803   -0.8073    2.4627 C.3     1  UNL1        0.0000
      6 C           1.4356   -2.0642    2.8409 C.3     1  UNL1        0.0000
      7 C          -1.9554   -3.1365    0.2013 C.3     1  UNL1        0.0000
      8 C          -0.2489    2.4415    0.6302 C.ar    1  UNL1        0.0000
      9 C           1.6409    0.7763    1.0230 C.ar    1  UNL1        0.0000
     10 C          -0.0795   -0.0925   -3.8951 C.ar    1  UNL1        0.0000
     11 N           0.0030    2.6803   -0.1391 N.ar    1  UNL1        0.0000
     12 C           0.7221    2.2595   -2.0048 C.ar    1  UNL1        0.0000
     13 C          -1.6570    0.7643   -2.8628 C.ar    1  UNL1        0.0000
     14 C           0.3881   -2.3908    0.1227 C.ar    1  UNL1        0.0000
     15 C           0.3762   -2.3562    0.1523 C.ar    1  UNL1        0.0000
     16 C           0.4292   -0.8528   -2.2493 C.ar    1  UNL1        0.0000
     17 C           1.6462   -0.6361   -2.2335 C.ar    1  UNL1        0.0000
     18 N           0.8225   -0.5856    0.8159 N.ar    1  UNL1        0.0000
     19 C           0.1561   -0.9806    0.9962 C.ar    1  UNL1        0.0000
     20 C          -0.0006   -1.0527    1.1204 C.ar    1  UNL1        0.0000
     21 N          -1.7878    0.6746   -0.9891 N.ar    1  UNL1        0.0000
     22 C          -0.6098    0.3678   -1.8093 C.ar    1  UNL1        0.0000
     23 C          -1.0334   -3.9108   -0.9036 C.3     1  UNL1        0.0000
     24 C          -1.6769    1.3556    0.5669 C.3     1  UNL1        0.0000
     25 C           1.1275    1.0486   -1.1140 C.3     1  UNL1        0.0000
     26 C          -1.2395    0.4996    0.4330 C.3     1  UNL1        0.0000
     27 C          -2.4995   -0.2629    0.1357 C.3     1  UNL1        0.0000
     28 C           1.8897   -0.7319    1.9054 C.3     1  UNL1        0.0000
     29 C           0.8805    0.5609    2.3078 C.3     1  UNL1        0.0000
     30 C          -1.6732   -1.6133    0.4523 C.3     1  UNL1        0.0000
     31 C          -0.3661    0.7649   -1.7033 C.ar    1  UNL1        0.0000
     32 N          -1.7530    2.7943    1.1007 N.ar    1  UNL1        0.0000
     33 N           0.4443    1.9090    2.0761 N.ar    1  UNL1        0.0000
     34 C          -0.1473    0.0300    1.2914 C.ar    1  UNL1        0.0000
     35 C           0.0498    1.1839   -0.0737 C.ar    1  UNL1        0.0000
     36 H          -2.1152    0.1760    2.9018 H       1  UNL1        0.0000
     37 H          -0.2079   -3.3383    1.6942 H       1  UNL1        0.0000
     38 H          -0.1465    1.5336    3.1149 H       1  UNL1        0.0000
     39 H          -0.2188   -2.5122   -2.4187 H       1  UNL1        0.0000
     40 H          -2.5135   -0.8120    1.3950 H       1  UNL1        0.0000
     41 H           2.2205   -2.1586    1.9643 H       1  UNL1        0.0000
     42 H          -2.5520   -0.4084   -1.2725 H       1  UNL1        0.0000
     43 H          -1.2635    2.4365   -3.7955 H       1  UNL1        0.0000
     44 H           2.2285    1.7133   -0.6622 H       1  UNL1        0.0000
     45 H           2.1455   -1.5033    0.1611 H       1  UNL1        0.0000
     46 H          -2.4671   -1.4305    2.4203 H       1  UNL1        0.0000
     47 H           0.3869   -1.2181   -3.6590 H       1  UNL1        0.0000
     48 H           3.6953   -0.4399   -2.0523 H       1  UNL1        0.0000
     49 H          -0.9615    0.7992    3.2601 H       1  UNL1        0.0000
     50 H          -0.9053   -1.9477    1.4870 H       1  UNL1        0.0000
     51 H          -1.8869   -1.5824   -1.3996 H       1  UNL1        0.0000
     52 H          -1.2728    3.2805   -0.4902 H       1  UNL1        0.0000
     53 H           0.2135   -3.5451   -1.6784 H       1  UNL1        0.0000
     54 H          -1.2321    2.1507   -0.4182 H       1  UNL1        0.0000
     55 H           0.7891   -1.4665   -0.7656 H       1  UNL1        0.0000
     56 H           2.8466    1.1462    1.0297 H       1  UNL1        0.0000
     57 H           0.9726   -2.1850   -3.0286 H       1  UNL1        0.0000
     58 H          -1.7293   -1.8062   -3.1238 H       1  UNL1        0.0000
     59 H           0.9760   -0.7756    2.1727 H       1  UNL1        0.0000
     60 H          -2.5229    2.2633   -0.1095 H       1  UNL1        0.0000
     61 H           0.7779    0.9604   -3.1964 H       1  UNL1        0.0000
     62 H           1.8748    1.9403   -3.2720 H       1  UNL1        0.0000
     63 H           1.2084    3.2189   -0.1901 H       1  UNL1        0.0000
     64 H           3.2420   -1.0276   -0.1259 H       1  UNL1        0.0000
     65 H          -1.3308   -3.1534    1.8886 H       1  UNL1        0.0000
     66 H          -1.6942    1.1642    2.3822 H       1  UNL1        0.0000
     67 H           2.3335    1.9164    1.7275 H       1  UNL1        0.0000
     68 EU          1.2636    1.8390    0.3070 Eu      1  UNL1        0.0000
@<TRIPOS>BOND
     1     1     2    2
     2     2     3   am
     3     3     4    1
     4     3     5    1
     5     5     6    1
     6     6     7    1
     7     2     8    1
     8     8     9   ar
     9     9    10   ar
    10     8    11   ar
    11    11    12   ar
    12    12    13   ar
    13    10    13   ar
    14    13    14   ar
    15    14    15   ar
    16    15    16   ar
    17    16    17   ar
    18    12    17   ar
    19    17    18   ar
    20    18    19   ar
    21    19    20    1
    22    20    21   ar
    23    21    22   ar
    24    22    23    1
    25    23    24    1
    26    23    25    1
    27    23    26    1
    28    26    27    1
    29    27    28    1
    30    28    29    1
    31    28    30    1
    32    22    31   ar
    33    28    31    1
    34    31    32   ar
    35    32    33   ar
    36    20    33   ar
    37    19    34   ar
    38    34    35   ar
    39    16    35   ar
    40     4    36    1
    41     4    37    1
    42     4    38    1
    43     5    39    1
    44     5    40    1
    45     6    41    1
    46     6    42    1
    47     7    43    1
    48     7    44    1
    49     7    45    1
    50     9    46    1
    51    10    47    1
    52    14    48    1
    53    15    49    1
    54    24    50    1
    55    24    51    1
    56    24    52    1
    57    25    53    1
    58    25    54    1
    59    25    55    1
    60    26    56    1
    61    26    57    1
    62    27    58    1
    63    27    59    1
    64    29    60    1
    65    29    61    1
    66    29    62    1
    67    30    63    1
    68    30    64    1
    69    30    65    1
    70    34    66    1
    71    35    67    1
    72    68     1    1
    73    68    33    1
    74    68    18    1
    75    68    11    1
@<TRIPOS>MOLECULE
*****
 68 75 0 0 0
SMALL
GASTEIGER

@<TRIPOS>ATOM
      1 O           1.2612   -0.3804   -1.0067 O.2     1  UNL1        0.0000
      2 C          -1.1927   -0.5387   -0.6190 C.2     1  UNL1        0.0000
      3 N          -1.1525   -0.9227    2.1986 N.am    1  UNL1        0.0000
      4 C          -1.2388   -0.6610    2.1961 C.3     1  UNL1        0.0000
      5 C          -0.8803   -0.8073    2.4627 C.3     1  UNL1        0.0000
      6 C           1.4356   -2.0642    2.8409 C.3     1  UNL1        0.0000
      7 C          -1.9554   -3.1365    0.2013 C.3     1  UNL1        0.0000
      8 C          -0.2489    2.4415    0.6302 C.ar    1  UNL1        0.0000
      9 C           1.6409    0.7763    1.0230 C.ar    1  UNL1        0.0000
     10 C          -0.0795   -0.0925   -3.8951 C.ar    1  UNL1        0.0000
     11 N           0.0030    2.6803   -0.1391 N.ar    1  UNL1        0.0000
     12 C           0.7221    2.2595   -2.0048 C.ar    1  UNL1        0.0000
     13 C          -1.6570    0.7643   -2.8628 C.ar    1  UNL1        0.0000
     14 C           0.3881   -2.3908    0.1227 C.ar    1  UNL1        0.0000
     15 C           0.3762   -2.3562    0.1523 C.ar    1  UNL1        0.0000
     16 C           0.4292   -0.8528   -2.2493 C.ar    1  UNL1        0.0000
     17 C           1.6462   -0.6361   -2.2335 C.ar    1  UNL1        0.0000
     18 N           0.8225   -0.5856    0.8159 N.ar    1  UNL1        0.0000
     19 C           0.1561   -0.9806    0.9962 C.ar    1  UNL1        0.0000
     20 C          -0.0006   -1.0527    1.1204 C.ar    1  UNL1        0.0000
     21 N          -1.7878    0.6746   -0.9891 N.ar    1  UNL1        0.0000
     22 C          -0.6098    0.3678   -1.8093 C.ar    1  UNL1        0.0000
     23 C          -1.0334   -3.9108   -0.9036 C.3     1  UNL1        0.0000
     24 C          -1.6769    1.3556    0.5669 C.3     1  UNL1        0.0000
     25 C           1.1275    1.0486   -1.1140 C.3     1  UNL1        0.0000
     26 C          -1.2395    0.4996    0.4330 C.3     1  UNL1        0.0000
     27 C          -2.4995   -0.2629    0.1357 C.3     1  UNL1        0.0000
     28 C           1.8897   -0.7319    1.9054 C.3     1  UNL1        0.0000
     29 C           0.8805    0.5609    2.3078 C.3     1  UNL1        0.0000
     30 C          -1.6732   -1.6133    0.4523 C.3     1  UNL1        0.0000
     31 C          -0.3661    0.7649   -1.7033 C.ar    1  UNL1        0.0000
     32 N          -1.7530    2.7943    1.1007 N.ar    1  UNL1        0.0000
     33 N           0.4443    1.9090    2.0761 N.ar    1  UNL1        0.0000
     34 C          -0.1473    0.0300    1.2914 C.ar    1  UNL1        0.0000
     35 C           0.0498    1.1839   -0.0737 C.ar    1  UNL1        0.0000
     36 H          -2.1152    0.1760    2.9018 H       1  UNL1        0.0000
     37 H          -0.2079   -3.3383    1.6942 H       1  UNL1        0.0000
     38 H          -0.1465    1.5336    3.1149 H       1  UNL1        0.0000
     39 H          -0.2188   -2.5122   -2.4187 H       1  UNL1        0.0000
     40 H          -2.5135   -0.8120    1.3950 H       1  UNL1        0.0000
     41 H           2.2205   -2.1586    1.9643 H       1  UNL1        0.0000
     42 H          -2.5520   -0.4084   -1.2725 H       1  UNL1        0.0000
     43 H          -1.2635    2.4365   -3.7955 H       1  UNL1        0.0000
     44 H           2.2285    1.7133   -0.6622 H       1  UNL1        0.0000
     45 H           2.1455   -1.5033    0.1611 H       1  UNL1        0.0000
     46 H          -2.4671   -1.4305    2.4203 H       1  UNL1        0.0000
     47 H           0.3869   -1.2181   -3.6590 H       1  UNL1        0.0000
     48 H           3.6953   -0.4399   -2.0523 H       1  UNL1        0.0000
     49 H          -0.9615    0.7992    3.2601 H       1  UNL1        0.0000
     50 H          -0.9053   -1.9477    1.4870 H       1  UNL1        0.0000
     51 H          -1.8869   -1.5824   -1.3996 H       1  UNL1        0.0000
     52 H          -1.2728    3.2805   -0.4902 H       1  UNL1        0.0000
     53 H           0.2135   -3.5451   -1.6784 H       1  UNL1        0.0000
     54 H          -1.2321    2.1507   -0.4182 H       1  UNL1        0.0000
     55 H           0.7891   -1.4665   -0.7656 H       1  UNL1        0.0000
     56 H           2.8466    1.1462    1.0297 H       1  UNL1        0.0000
     57 H           0.9726   -2.1850   -3.0286 H       1  UNL1        0.0000
     58 H          -1.7293   -1.8062   -3.1238 H       1  UNL1        0.0000
     59 H           0.9760   -0.7756    2.1727 H       1  UNL1        0.0000
     60 H          -2.5229    2.2633   -0.1095 H       1  UNL1        0.0000
     61 H           0.7779    0.9604   -3.1964 H       1  UNL1        0.0000
     62 H           1.8748    1.9403   -3.2720 H       1  UNL1        0.0000
     63 H           1.2084    3.2189   -0.1901 H       1  UNL1        0.0000
     64 H           3.2420   -1.0276   -0.1259 H       1  UNL1        0.0000
     65 H          -1.3308   -3.1534    1.8886 H       1  UNL1        0.0000
     66 H          -1.6942    1.1642    2.3822 H       1  UNL1        0.0000
     67 H           2.3335    1.9164    1.7275 H       1  UNL1        0.0000
     68 EU          1.2636    1.8390    0.3070 Eu      1  UNL1        0.0000
@<TRIPOS>BOND
     1     1     2    2
     2     2     3   am
     3     3     4    1
     4     3     5    1
     5     5     6    1
     6     6     7    1
     7     2     8    1
     8     8     9   ar
     9     9    10   ar
    10     8    11   ar
    11    11    12   ar
    12    12    13   ar
    13    10    13   ar
    14    13    14   ar
    15    14    15   ar
    16    15    16   ar
    17    16    17   ar
    18    12    17   ar
    19    17    18   ar
    20    18    19   ar
    21    19    20    1
    22    20    21   ar
    23    21    22   ar
    24    22    23    1
    25    23    24    1
    26    23    25    1
    27    23    26    1
    28    26    27    1
    29    27    28    1
    30    28    29    1
    31    28    30    1
    32    22    31   ar
    33    28    31    1
    34    31    32   ar
    35    32    33   ar
    36    20    33   ar
    37    19    34   ar
    38    34    35   ar
    39    16    35   ar
    40     4    36    1
    41     4    37    1
    42     4    38    1
    43     5    39    1
    44     5    40    1
    45     6    41    1
    46     6    42    1
    47     7    43    1
    48     7    44    1
    49     7    45    1
    50     9    46    1
    51    10    47    1
    52    14    48    1
    53    15    49    1
    54    24    50    1
    55    24    51    1
    56    24    52    1
    57    25    53    1
    58    25    54    1
    59    25    55    1
    60    26    56    1
    61    26    57    1
    62    27    58    1
    63    27    59    1
    64    29    60    1
    65    29    61    1
    66    29    62    1
    67    30    63    1
    68    30    64    1
    69    30    65    1
    70    34    66    1
    71    35    67    1
    72    68     1    1
    73    68    33    1
    74    68    18    1
    75    68    11    1
@<TRIPOS>MOLECULE
*****
 68 75 0 0 0
SMALL
GASTEIGER

@<TRIPOS>ATOM
      1 O           1.2612   -0.3804   -1.0067 O.2     1  UNL1        0.0000
      2 C          -1.1927   -0.5387   -0.6190 C.2     1  UNL1        0.0000
      3 N          -1.1525   -0.9227    2.1986 N.am    1  UNL1        0.0000
      4 C          -1.2388   -0.6610    2.1961 C.3     1  UNL1        0.0000
      5 C          -0.8803   -0.8073    2.4627 C.3     1  UNL1        0.0000
      6 C           1.4356   -2.0642    2.8409 C.3     1  UNL1        0.0000
      7 C          -1.9554   -3.1365    0.2013 C.3     1  UNL1        0.0000
      8 C          -0.2489    2.4415    0.6302 C.ar    1  UNL1        0.0000
      9 C           1.6409    0.7763    1.0230 C.ar    1  UNL1        0.0000
     10 C          -0.0795   -0.0925   -3.8951 C.ar    1  UNL1        0.0000
     11 N           0.0030    2.6803   -0.1391 N.ar    1  UNL1        0.0000
     12 C           0.7221    2.2595   -2.0048 C.ar    1  UNL1        0.0000
     13 C          -1.6570    0.7643   -2.8628 C.ar    1  UNL1        0.0000
     14 C           0.3881   -2.3908    0.1227 C.ar    1  UNL1        0.0000
     15 C           0.3762   -2.3562    0.1523 C.ar    1  UNL1        0.0000
     16 C           0.4292   -0.8528   -2.2493 C.ar    1  UNL1        0.0000
     17 C           1.6462   -0.6361   -2.2335 C.ar    1  UNL1        0.0000
     18 N           0.8225   -0.5856    0.8159 N.ar    1  UNL1        0.0000
     19 C           0.1561   -0.9806    0.9962 C.ar    1  UNL1        0.0000
     20 C          -0.0006   -1.0527    1.1204 C.ar    1  UNL1        0.0000
     21 N          -1.7878    0.6746   -0.9891 N.ar    1  UNL1        0.0000
     22 C          -0.6098    0.3678   -1.8093 C.ar    1  UNL1        0.0000
     23 C          -1.0334   -3.9108   -0.9036 C.3     1  UNL1        0.0000
     24 C          -1.6769    1.3556    0.5669 C.3     1  UNL1        0.0000
     25 C           1.1275    1.0486   -1.1140 C.3     1  UNL1        0.0000
     26 C          -1.2395    0.4996    0.4330 C.3     1  UNL1        0.0000
     27 C          -2.4995   -0.2629    0.1357 C.3     1  UNL1        0.0000
     28 C           1.8897   -0.7319    1.9054 C.3     1  UNL1        0.0000
     29 C           0.8805    0.5609    2.3078 C.3     1  UNL1        0.0000
     30 C          -1.6732   -1.6133    0.4523 C.3     1  UNL1        0.0000
     31 C          -0.3661    0.7649   -1.7033 C.ar    1  UNL1        0.0000
     32 N          -1.7530    2.7943    1.1007 N.ar    1  UNL1        0.0000
     33 N           0.4443    1.9090    2.0761 N.ar    1  UNL1        0.0000
     34 C          -0.1473    0.0300    1.2914 C.ar    1  UNL1        0.0000
     35 C           0.0498    1.1839   -0.0737 C.ar    1  UNL1        0.0000
     36 H          -2.1152    0.1760    2.9018 H       1  UNL1        0.0000
     37 H          -0.2079   -3.3383    1.6942 H       1  UNL1        0.0000
     38 H          -0.1465    1.5336    3.1149 H       1  UNL1        0.0000
     39 H          -0.2188   -2.5122   -2.4187 H       1  UNL1        0.0000
     40 H          -2.5135   -0.8120    1.3950 H       1  UNL1        0.0000
     41 H           2.2205   -2.1586    1.9643 H       1  UNL1        0.0000
     42 H          -2.5520   -0.4084   -1.2725 H       1  UNL1        0.0000
     43 H          -1.2635    2.4365   -3.7955 H       1  UNL1        0.0000
     44 H           2.2285    1.7133   -0.6622 H       1  UNL1        0.0000
     45 H           2.1455   -1.5033    0.1611 H       1  UNL1        0.0000
     46 H          -2.4671   -1.4305    2.4203 H       1  UNL1        0.0000
     47 H           0.3869   -1.2181   -3.6590 H       1  UNL1        0.0000
     48 H           3.6953   -0.4399   -2.0523 H       1  UNL1        0.0000
     49 H          -0.9615    0.7992    3.2601 H       1  UNL1        0.0000
     50 H          -0.9053   -1.9477    1.4870 H       1  UNL1        0.0000
     51 H          -1.8869   -1.5824   -1.3996 H       1  UNL1        0.0000
     52 H          -1.2728    3.2805   -0.4902 H       1  UNL1        0.0000
     53 H           0.2135   -3.5451   -1.6784 H       1  UNL1        0.0000
     54 H          -1.2321    2.1507   -0.4182 H       1  UNL1        0.0000
     55 H           0.7891   -1.4665   -0.7656 H       1  UNL1        0.0000
     56 H           2.8466    1.1462    1.0297 H       1  UNL1        0.0000
     57 H           0.9726   -2.1850   -3.0286 H       1  UNL1        0.0000
     58 H          -1.7293   -1.8062   -3.1238 H       1  UNL1        0.0000
     59 H           0.9760   -0.7756    2.1727 H       1  UNL1        0.0000
     60 H          -2.5229    2.2633   -0.1095 H       1  UNL1        0.0000
     61 H           0.7779    0.9604   -3.1964 H       1  UNL1        0.0000
     62 H           1.8748    1.9403   -3.2720 H       1  UNL1        0.0000
     63 H           1.2084    3.2189   -0.1901 H       1  UNL1        0.0000
     64 H           3.2420   -1.0276   -0.1259 H       1  UNL1        0.0000
     65 H          -1.3308   -3.1534    1.8886 H       1  UNL1        0.0000
     66 H          -1.6942    1.1642    2.3822 H       1  UNL1        0.0000
     67 H           2.3335    1.9164    1.7275 H       1  UNL1        0.0000
     68 EU          1.2636    1.8390    0.3070 Eu      1  UNL1        0.0000
@<TRIPOS>BOND
     1     1     2    2
     2     2     3   am
     3     3     4    1
     4     3     5    1
     5     5     6    1
     6     6     7    1
     7     2     8    1
     8     8     9   ar
     9     9    10   ar
    10     8    11   ar
    11    11    12   ar
    12    12    13   ar
    13    10    13   ar
    14    13    14   ar
    15    14    15   ar
    16    15    16   ar
    17    16    17   ar
    18    12    17   ar
    19    17    18   ar
    20    18    19   ar
    21    19    20    1
    22    20    21   ar
    23    21    22   ar
    24    22    23    1
    25    23    24    1
    26    23    25    1
    27    23    26    1
    28    26    27    1
    29    27    28    1
    30    28    29    1
    31    28    30    1
    32    22    31   ar
    33    28    31    1
    34    31    32   ar
    35    32    33   ar
    36    20    33   ar
    37    19    34   ar
    38    34    35   ar
    39    16    35   ar
    40     4    36    1
    41     4    37    1
    42     4    38    1
    43     5    39    1
    44     5    40    1
    45     6    41    1
    46     6    42    1
    47     7    43    1
    48     7    44    1
    49     7    45    1
    50     9    46    1
    51    10    47    1
    52    14    48    1
    53    15    49    1
    54    24    50    1
    55    24    51    1
    56    24    52    1
    57    25    53    1
    58    25    54    1
    59    25    55    1
    60    26    56    1
    61    26    57    1
    62    27    58    1
    63    27    59    1
    64    29    60    1
    65    29    61    1
    66    29    62    1
    67    30    63    1
    68    30    64    1
    69    30    65    1
    70    34    66    1
    71    35    67    1
    72    68     1    1
    73    68    33    1
    74    68    18    1
    75    68    11    1
@<TRIPOS>MOLECULE
*****
 68 75 0 0 0
SMALL
GASTEIGER

@<TRIPOS>ATOM
      1 O           1.2612   -0.3804   -1.0067 O.2     1  UNL1        0.0000
      2 C          -1.1927   -0.5387   -0.6190 C.2     1  UNL1        0.0000
      3 N          -1.1525   -0.9227    2.1986 N.am    1  UNL1        0.0000
      4 C          -1.2388   -0.6610    2.1961 C.3     1  UNL1        0.0000
      5 C          -0.8803   -0.8073    2.4627 C.3     1  UNL1        0.0000
      6 C           1.4356   -2.0642    2.8409 C.3     1  UNL1        0.0000
      7 C          -1.9554   -3.1365    0.2013 C.3     1  UNL1        0.0000
      8 C          -0.2489    2.4415    0.6302 C.ar    1  UNL1        0.0000
      9 C           1.6409    0.7763    1.0230 C.ar    1  UNL1        0.0000
     10 C          -0.0795   -0.0925   -3.8951 C.ar    1  UNL1        0.0000
     11 N           0.0030    2.6803   -0.1391 N.ar    1  UNL1        0.0000
     12 C           0.7221    2.2595   -2.0048 C.ar    1  UNL1        0.0000
     13 C          -1.6570    0.7643   -2.8628 C.ar    1  UNL1        0.0000
     14 C           0.3881   -2.3908    0.1227 C.ar    1  UNL1        0.0000
     15 C           0.3762   -2.3562    0.1523 C.ar    1  UNL1        0.0000
     16 C           0.4292   -0.8528   -2.2493 C.ar    1  UNL1        0.0000
     17 C           1.6462   -0.6361   -2.2335 C.ar    1  UNL1        0.0000
     18 N           0.8225   -0.5856    0.8159 N.ar    1  UNL1        0.0000
     19 C           0.1561   -0.9806    0.9962 C.ar    1  UNL1        0.0000
     20 C          -0.0006   -1.0527    1.1204 C.ar    1  UNL1        0.0000
     21 N          -1.7878    0.6746   -0.9891 N.ar    1  UNL1        0.0000
     22 C          -0.6098    0.3678   -1.8093 C.ar    1  UNL1        0.0000
     23 C          -1.0334   -3.9108   -0.9036 C.3     1  UNL1        0.0000
     24 C          -1.6769    1.3556    0.5669 C.3     1  UNL1        0.0000
     25 C           1.1275    1.0486   -1.1140 C.3     1  UNL1        0.0000
     26 C          -1.2395    0.4996    0.4330 C.3     1  UNL1        0.0000
     27 C          -2.4995   -0.2629    0.1357 C.3     1  UNL1        0.0000
     28 C           1.8897   -0.7319    1.9054 C.3     1  UNL1        0.0000
     29 C           0.8805    0.5609    2.3078 C.3     1  UNL1        0.0000
     30 C          -1.6732   -1.6133    0.4523 C.3     1  UNL1        0.0000
     31 C          -0.3661    0.7649   -1.7033 C.ar    1  UNL1        0.0000
     32 N          -1.7530    2.7943    1.1007 N.ar    1  UNL1        0.0000
     33 N           0.4443    1.9090    2.0761 N.ar    1  UNL1        0.0000
     34 C          -0.1473    0.0300    1.2914 C.ar    1  UNL1        0.0000
     35 C           0.0498    1.1839   -0.0737 C.ar    1  UNL1        0.0000
     36 H          -2.1152    0.1760    2.9018 H       1  UNL1        0.0000
     37 H          -0.2079   -3.3383    1.6942 H       1  UNL1        0.0000
     38 H          -0.1465    1.5336    3.1149 H       1  UNL1        0.0000
     39 H          -0.2188   -2.5122   -2.4187 H       1  UNL1        0.0000
     40 H          -2.5135   -0.8120    1.3950 H       1  UNL1        0.0000
     41 H           2.2205   -2.1586    1.9643 H       1  UNL1        0.0000
     42 H          -2.5520   -0.4084   -1.2725 H       1  UNL1        0.0000
     43 H          -1.2635    2.4365   -3.7955 H       1  UNL1        0.0000
     44 H           2.2285    1.7133   -0.6622 H       1  UNL1        0.0000
     45 H           2.1455   -1.5033    0.1611 H       1  UNL1        0.0000
     46 H          -2.4671   -1.4305    2.4203 H       1  UNL1        0.0000
     47 H           0.3869   -1.2181   -3.6590 H       1  UNL1        0.0000
     48 H           3.6953   -0.4399   -2.0523 H       1  UNL1        0.0000
     49 H          -0.9615    0.7992    3.2601 H       1  UNL1        0.0000
     50 H          -0.9053   -1.9477    1.4870 H       1  UNL1        0.0000
     51 H          -1.8869   -1.5824   -1.3996 H       1  UNL1        0.0000
     52 H          -1.2728    3.2805   -0.4902 H       1  UNL1        0.0000
     53 H           0.2135   -3.5451   -1.6784 H       1  UNL1        0.0000
     54 H          -1.2321    2.1507   -0.4182 H       1  UNL1        0.0000
     55 H           0.7891   -1.4665   -0.7656 H       1  UNL1        0.0000
     56 H           2.8466    1.1462    1.0297 H       1  UNL1        0.0000
     57 H           0.9726   -2.1850   -3.0286 H       1  UNL1        0.0000
     58 H          -1.7293   -1.8062   -3.1238 H       1  UNL1        0.0000
     59 H           0.9760   -0.7756    2.1727 H       1  UNL1        0.0000
     60 H          -2.5229    2.2633   -0.1095 H       1  UNL1        0.0000
     61 H           0.7779    0.9604   -3.1964 H       1  UNL1        0.0000
     62 H           1.8748    1.9403   -3.2720 H       1  UNL1        0.0000
     63 H           1.2084    3.2189   -0.1901 H       1  UNL1        0.0000
     64 H           3.2420   -1.0276   -0.1259 H       1  UNL1        0.0000
     65 H          -1.3308   -3.1534    1.8886 H       1  UNL1        0.0000
     66 H          -1.6942    1.1642    2.3822 H       1  UNL1        0.0000
     67 H           2.3335    1.9164    1.7275 H       1  UNL1        0.0000
     68 EU          1.2636    1.8390    0.3070 Eu      1  UNL1        0.0000
@<TRIPOS>BOND
     1     1     2    2
     2     2     3   am
     3     3     4    1
     4     3     5    1
     5     5     6    1
     6     6     7    1
     7     2     8    1
     8     8     9   ar
     9     9    10   ar
    10     8    11   ar
    11    11    12   ar
    12    12    13   ar
    13    10    13   ar
    14    13    14   ar
    15    14    15   ar
    16    15    16   ar
    17    16    17   ar
    18    12    17   ar
    19    17    18   ar
    20    18    19   ar
    21    19    20    1
    22    20    21   ar
    23    21    22   ar
    24    22    23    1
    25    23    24    1
    26    23    25    1
    27    23    26    1
    28    26    27    1
    29    27    28    1
    30    28    29    1
    31    28    30    1
    32    22    31   ar
    33    28    31    1
    34    31    32   ar
    35    32    33   ar
    36    20    33   ar
    37    19    34   ar
    38    34    35   ar
    39    16    35   ar
    40     4    36    1
    41     4    37    1
    42     4    38    1
    43     5    39    1
    44     5    40    1
    45     6    41    1
    46     6    42    1
    47     7    43    1
    48     7    44    1
    49     7    45    1
    50     9    46    1
    51    10    47    1
    52    14    48    1
    53    15    49    1
    54    24    50    1
    55    24    51    1
    56    24    52    1
    57    25    53    1
    58    25    54    1
    59    25    55    1
    60    26    56    1
    61    26    57    1
    62    27    58    1
    63    27    59    1
    64    29    60    1
    65    29    61    1
    66    29    62    1
    67    30    63    1
    68    30    64    1
    69    30    65    1
    70    34    66    1
    71    35    67    1
    72    68     1    1
    73    68    33    1
    74    68    18    1
    75    68    11    1
@<TRIPOS>MOLECULE
*****
 68 75 0 0 0
SMALL
GASTEIGER

@<TRIPOS>ATOM
      1 O           1.2612   -0.3804   -1.0067 O.2     1  UNL1        0.0000
      2 C          -1.1927   -0.5387   -0.6190 C.2     1  UNL1        0.0000
      3 N          -1.1525   -0.9227    2.1986 N.am    1  UNL1        0.0000
      4 C          -1.2388   -0.6610    2.1961 C.3     1  UNL1        0.0000
      5 C          -0.8803   -0.8073    2.4627 C.3     1  UNL1        0.0000
      6 C           1.4356   -2.0642    2.8409 C.3     1  UNL1        0.0000
      7 C          -1.9554   -3.1365    0.2013 C.3     1  UNL1        0.0000
      8 C          -0.2489    2.4415    0.6302 C.ar    1  UNL1        0.0000
      9 C           1.6409    0.7763    1.0230 C.ar    1  UNL1        0.0000
     10 C          -0.0795   -0.0925   -3.8951 C.ar    1  UNL1        0.0000
     11 N           0.0030    2.6803   -0.1391 N.ar    1  UNL1        0.0000
     12 C           0.7221    2.2595   -2.0048 C.ar    1  UNL1        0.0000
     13 C          -1.6570    0.7643   -2.8628 C.ar    1  UNL1        0.0000
     14 C           0.3881   -2.3908    0.1227 C.ar    1  UNL1        0.0000
     15 C           0.3762   -2.3562    0.1523 C.ar    1  UNL1        0.0000
     16 C           0.4292   -0.8528   -2.2493 C.ar    1  UNL1        0.0000
     17 C           1.6462   -0.6361   -2.2335 C.ar    1  UNL1        0.0000
     18 N           0.8225   -0.5856    0.8159 N.ar    1  UNL1        0.0000
     19 C           0.1561   -0.9806    0.9962 C.ar    1  UNL1        0.0000
     20 C          -0.0006   -1.0527    1.1204 C.ar    1  UNL1        0.0000
     21 N          -1.7878    0.6746   -0.9891 N.ar    1  UNL1        0.0000
     22 C          -0.6098    0.3678   -1.8093 C.ar    1  UNL1        0.0000
     23 C          -1.0334   -3.9108   -0.9036 C.3     1  UNL1        0.0000
     24 C          -1.6769    1.3556    0.5669 C.3     1  UNL1        0.0000
     25 C           1.1275    1.0486   -1.1140 C.3     1  UNL1        0.0000
     26 C          -1.2395    0.4996    0.4330 C.3     1  UNL1        0.0000
     27 C          -2.4995   -0.2629    0.1357 C.3     1  UNL1        0.0000
     28 C           1.8897   -0.7319    1.9054 C.3     1  UNL1        0.0000
     29 C           0.8805    0.5609    2.3078 C.3     1  UNL1        0.0000
     30 C          -1.6732   -1.6133    0.4523 C.3     1  UNL1        0.0000
     31 C          -0.3661    0.7649   -1.7033 C.ar    1  UNL1        0.0000
     32 N          -1.7530    2.7943    1.1007 N.ar    1  UNL1        0.0000
     33 N           0.4443    1.9090    2.0761 N.ar    1  UNL1        0.0000
     34 C          -0.1473    0.0300    1.2914 C.ar    1  UNL1        0.0000
     35 C           0.0498    1.1839   -0.0737 C.ar    1  UNL1        0.0000
     36 H          -2.1152    0.1760    2.9018 H       1  UNL1        0.0000
     37 H          -0.2079   -3.3383    1.6942 H       1  UNL1        0.0000
     38 H          -0.1465    1.5336    3.1149 H       1  UNL1        0.0000
     39 H          -0.2188   -2.5122   -2.4187 H       1  UNL1        0.0000
     40 H          -2.5135   -0.8120    1.3950 H       1  UNL1        0.0000
     41 H           2.2205   -2.1586    1.9643 H       1  UNL1        0.0000
     42 H          -2.5520   -0.4084   -1.2725 H       1  UNL1        0.0000
     43 H          -1.2635    2.4365   -3.7955 H       1  UNL1        0.0000
     44 H           2.2285    1.7133   -0.6622 H       1  UNL1        0.0000
     45 H           2.1455   -1.5033    0.1611 H       1  UNL1        0.0000
     46 H          -2.4671   -1.4305    2.4203 H       1  UNL1        0.0000
     47 H           0.3869   -1.2181   -3.6590 H       1  UNL1        0.0000
     48 H           3.6953   -0.4399   -2.0523 H       1  UNL1        0.0000
     49 H          -0.9615    0.7992    3.2601 H       1  UNL1        0.0000
     50 H          -0.9053   -1.9477    1.4870 H       1  UNL1        0.0000
     51 H          -1.8869   -1.5824   -1.3996 H       1  UNL1        0.0000
     52 H          -1.2728    3.2805   -0.4902 H       1  UNL1        0.0000
     53 H           0.2135   -3.5451   -1.6784 H       1  UNL1        0.0000
     54 H          -1.2321    2.1507   -0.4182 H       1  UNL1        0.0000
     55 H           0.7891   -1.4665   -0.7656 H       1  UNL1        0.0000
     56 H           2.8466    1.1462    1.0297 H       1  UNL1        0.0000
     57 H           0.9726   -2.1850   -3.0286 H       1  UNL1        0.0000
     58 H          -1.7293   -1.8062   -3.1238 H       1  UNL1        0.0000
     59 H           0.9760   -0.7756    2.1727 H       1  UNL1        0.0000
     60 H          -2.5229    2.2633   -0.1095 H       1  UNL1        0.0000
     61 H           0.7779    0.9604   -3.1964 H       1  UNL1        0.0000
     62 H           1.8748    1.9403   -3.2720 H       1  UNL1        0.0000
     63 H           1.2084    3.2189   -0.1901 H       1  UNL1        0.0000
     64 H           3.2420   -1.0276   -0.1259 H       1  UNL1        0.0000
     65 H          -1.3308   -3.1534    1.8886 H       1  UNL1        0.0000
     66 H          -1.6942    1.1642    2.3822 H       1  UNL1        0.0000
     67 H           2.3335    1.9164    1.7275 H       1  UNL1        0.0000
     68 EU          1.2636    1.8390    0.3070 Eu      1  UNL1        0.0000
@<TRIPOS>BOND
     1     1     2    2
     2     2     3   am
     3     3     4    1
     4     3     5    1
     5     5     6    1
     6     6     7    1
     7     2     8    1
     8     8     9   ar
     9     9    10   ar
    10     8    11   ar
    11    11    12   ar
    12    12    13   ar
    13    10    13   ar
    14    13    14   ar
    15    14    15   ar
    16    15    16   ar
    17    16    17   ar
    18    12    17   ar
    19    17    18   ar
    20    18    19   ar
    21    19    20    1
    22    20    21   ar
    23    21    22   ar
    24    22    23    1
    25    23    24    1
    26    23    25    1
    27    23    26    1
    28    26    27    1
    29    27    28    1
    30    28    29    1
    31    28    30    1
    32    22    31   ar
    33    28    31    1
    34    31    32   ar
    35    32    33   ar
    36    20    33   ar
    37    19    34   ar
    38    34    35   ar
    39    16    35   ar
    40     4    36    1
    41     4    37    1
    42     4    38    1
    43     5    39    1
    44     5    40    1
    45     6    41    1
    46     6    42    1
    47     7    43    1
    48     7    44    1
    49     7    45    1
    50     9    46    1
    51    10    47    1
    52    14    48    1
    53    15    49    1
    54    24    50    1
    55    24    51    1
    56    24    52    1
    57    25    53    1
    58    25    54    1
    59    25    55    1
    60    26    56    1
    61    26    57    1
    62    27    58    1
    63    27    59    1
    64    29    60    1
    65    29    61    1
    66    29    62    1
    67    30    63    1
    68    30    64    1
    69    30    65    1
    70    34    66    1
    71    35    67    1
    72    68     1    1
    73    68    33    1
    74    68    18    1
    75    68    11    1
@<TRIPOS>MOLECULE
*****
 68 75 0 0 0
SMALL
GASTEIGER

@<TRIPOS>ATOM
      1 O           1.2612   -0.3804   -1.0067 O.2     1  UNL1        0.0000
      2 C          -1.1927   -0.5387   -0.6190 C.2     1  UNL1        0.0000
      3 N          -1.1525   -0.9227    2.1986 N.am    1  UNL1        0.0000
      4 C          -1.2388   -0.6610    2.1961 C.3     1  UNL1        0.0000
      5 C          -0.8803   -0.8073    2.4627 C.3     1  UNL1        0.0000
      6 C           1.4356   -2.0642    2.8409 C.3     1  UNL1        0.0000
      7 C          -1.9554   -3.1365    0.2013 C.3     1  UNL1        0.0000
      8 C          -0.2489    2.4415    0.6302 C.ar    1  UNL1        0.0000
      9 C           1.6409    0.7763    1.0230 C.ar    1  UNL1        0.0000
     10 C          -0.0795   -0.0925   -3.8951 C.ar    1  UNL1        0.0000
     11 N           0.0030    2.6803   -0.1391 N.ar    1  UNL1        0.0000
     12 C           0.7221    2.2595   -2.0048 C.ar    1  UNL1        0.0000
     13 C          -1.6570    0.7643   -2.8628 C.ar    1  UNL1        0.0000
     14 C           0.3881   -2.3908    0.1227 C.ar    1  UNL1        0.0000
     15 C           0.3762   -2.3562    0.1523 C.ar    1  UNL1        0.0000
     16 C           0.4292   -0.8528   -2.2493 C.ar    1  UNL1        0.0000
     17 C           1.6462   -0.6361   -2.2335 C.ar    1  UNL1        0.0000
     18 N           0.8225   -0.5856    0.8159 N.ar    1  UNL1        0.0000
     19 C           0.1561   -0.9806    0.9962 C.ar    1  UNL1        0.0000
     20 C          -0.0006   -1.0527    1.1204 C.ar    1  UNL1        0.0000
     21 N          -1.7878    0.6746   -0.9891 N.ar    1  UNL1        0.0000
     22 C          -0.6098    0.3678   -1.8093 C.ar    1  UNL1        0.0000
     23 C          -1.0334   -3.9108   -0.9036 C.3     1  UNL1        0.0000
     24 C          -1.6769    1.3556    0.5669 C.3     1  UNL1        0.0000
     25 C           1.1275    1.0486   -1.1140 C.3     1  UNL1        0.0000
     26 C          -1.2395    0.4996    0.4330 C.3     1  UNL1        0.0000
     27 C          -2.4995   -0.2629    0.1357 C.3     1  UNL1        0.0000
     28 C           1.8897   -0.7319    1.9054 C.3     1  UNL1        0.0000
     29 C           0.8805    0.5609    2.3078 C.3     1  UNL1        0.0000
     30 C          -1.6732   -1.6133    0.4523 C.3     1  UNL1        0.0000
     31 C          -0.3661    0.7649   -1.7033 C.ar    1  UNL1        0.0000
     32 N          -1.7530    2.7943    1.1007 N.ar    1  UNL1        0.0000
     33 N           0.4443    1.9090    2.0761 N.ar    1  UNL1        0.0000
     34 C          -0.1473    0.0300    1.2914 C.ar    1  UNL1        0.0000
     35 C           0.0498    1.1839   -0.0737 C.ar    1  UNL1        0.0000
     36 H          -2.1152    0.1760    2.9018 H       1  UNL1        0.0000
     37 H          -0.2079   -3.3383    1.6942 H       1  UNL1        0.0000
     38 H          -0.1465    1.5336    3.1149 H       1  UNL1        0.0000
     39 H          -0.2188   -2.5122   -2.4187 H       1  UNL1        0.0000
     40 H          -2.5135   -0.8120    1.3950 H       1  UNL1        0.0000
     41 H           2.2205   -2.1586    1.9643 H       1  UNL1        0.0000
     42 H          -2.5520   -0.4084   -1.2725 H       1  UNL1        0.0000
     43 H          -1.2635    2.4365   -3.7955 H       1  UNL1        0.0000
     44 H           2.2285    1.7133   -0.6622 H       1  UNL1        0.0000
     45 H           2.1455   -1.5033    0.1611 H       1  UNL1        0.0000
     46 H          -2.4671   -1.4305    2.4203 H       1  UNL1        0.0000
     47 H           0.3869   -1.2181   -3.6590 H       1  UNL1        0.0000
     48 H           3.6953   -0.4399   -2.0523 H       1  UNL1        0.0000
     49 H          -0.9615    0.7992    3.2601 H       1  UNL1        0.0000
     50 H          -0.9053   -1.9477    1.4870 H       1  UNL1        0.0000
     51 H          -1.8869   -1.5824   -1.3996 H       1  UNL1        0.0000
     52 H          -1.2728    3.2805   -0.4902 H       1  UNL1        0.0000
     53 H           0.2135   -3.5451   -1.6784 H       1  UNL1        0.0000
     54 H          -1.2321    2.1507   -0.4182 H       1  UNL1        0.0000
     55 H           0.7891   -1.4665   -0.7656 H       1  UNL1        0.0000
     56 H           2.8466    1.1462    1.0297 H       1  UNL1        0.0000
     57 H           0.9726   -2.1850   -3.0286 H       1  UNL1        0.0000
     58 H          -1.7293   -1.8062   -3.1238 H       1  UNL1        0.0000
     59 H           0.9760   -0.7756    2.1727 H       1  UNL1        0.0000
     60 H          -2.5229    2.2633   -0.1095 H       1  UNL1        0.0000
     61 H           0.7779    0.9604   -3.1964 H       1  UNL1        0.0000
     62 H           1.8748    1.9403   -3.2720 H       1  UNL1        0.0000
     63 H           1.2084    3.2189   -0.1901 H       1  UNL1        0.0000
     64 H           3.2420   -1.0276   -0.1259 H       1  UNL1        0.0000
     65 H          -1.3308   -3.1534    1.8886 H       1  UNL1        0.0000
     66 H          -1.6942    1.1642    2.3822 H       1  UNL1        0.0000
     67 H           2.3335    1.9164    1.7275 H       1  UNL1        0.0000
     68 EU          1.2636    1.8390    0.3070 Eu      1  UNL1        0.0000
@<TRIPOS>BOND
     1     1     2    2
     2     2     3   am
     3     3     4    1
     4     3     5    1
     5     5     6    1
     6     6     7    1
     7     2     8    1
     8     8     9   ar
     9     9    10   ar
    10     8    11   ar
    11    11    12   ar
    12    12    13   ar
    13    10    13   ar
    14    13    14   ar
    15    14    15   ar
    16    15    16   ar
    17    16    17   ar
    18    12    17   ar
    19    17    18   ar
    20    18    19   ar
    21    19    20    1
    22    20    21   ar
    23    21    22   ar
    24    22    23    1
    25    23    24    1
    26    23    25    1
    27    23    26    1
    28    26    27    1
    29    27    28    1
    30    28    29    1
    31    28    30    1
    32    22    31   ar
    33    28    31    1
    34    31    32   ar
    35    32    33   ar
    36    20    33   ar
    37    19    34   ar
    38    34    35   ar
    39    16    35   ar
    40     4    36    1
    41     4    37    1
    42     4    38    1
    43     5    39    1
    44     5    40    1
    45     6    41    1
    46     6    42    1
    47     7    43    1
    48     7    44    1
    49     7    45    1
    50     9    46    1
    51    10    47    1
    52    14    48    1
    53    15    49    1
    54    24    50    1
    55    24    51    1
    56    24    52    1
    57    25    53    1
    58    25    54    1
    59    25    55    1
    60    26    56    1
    61    26    57    1
    62    27    58    1
    63    27    59    1
    64    29    60    1
    65    29    61    1
    66    29    62    1
    67    30    63    1
    68    30    64    1
    69    30    65    1
    70    34    66    1
    71    35    67    1
    72    68     1    1
    73    68    33    1
    74    68    18    1
    75    68    11    1
@<TRIPOS>MOLECULE
*****
 68 75 0 0 0
SMALL
GASTEIGER

@<TRIPOS>ATOM
      1 O           1.2612   -0.3804   -1.0067 O.2     1  UNL1        0.0000
      2 C          -1.1927   -0.5387   -0.6190 C.2     1  UNL1        0.0000
      3 N          -1.1525   -0.9227    2.1986 N.am    1  UNL1        0.0000
      4 C          -1.2388   -0.6610    2.1961 C.3     1  UNL1        0.0000
      5 C          -0.8803   -0.8073    2.4627 C.3     1  UNL1        0.0000
      6 C           1.4356   -2.0642    2.8409 C.3     1  UNL1        0.0000
      7 C          -1.9554   -3.1365    0.2013 C.3     1  UNL1        0.0000
      8 C          -0.2489    2.4415    0.6302 C.ar    1  UNL1        0.0000
      9 C           1.6409    0.7763    1.0230 C.ar    1  UNL1        0.0000
     10 C          -0.0795   -0.0925   -3.8951 C.ar    1  UNL1        0.0000
     11 N           0.0030    2.6803   -0.1391 N.ar    1  UNL1        0.0000
     12 C           0.7221    2.2595   -2.0048 C.ar    1  UNL1        0.0000
     13 C          -1.6570    0.7643   -2.8628 C.ar    1  UNL1        0.0000
     14 C           0.3881   -2.3908    0.1227 C.ar    1  UNL1        0.0000
     15 C           0.3762   -2.3562    0.1523 C.ar    1  UNL1        0.0000
     16 C           0.4292   -0.8528   -2.2493 C.ar    1  UNL1        0.0000
     17 C           1.6462   -0.6361   -2.2335 C.ar    1  UNL1        0.0000
     18 N           0.8225   -0.5856    0.8159 N.ar    1  UNL1        0.0000
     19 C           0.1561   -0.9806    0.9962 C.ar    1  UNL1        0.0000
     20 C          -0.0006   -1.0527    1.1204 C.ar    1  UNL1        0.0000
     21 N          -1.7878    0.6746   -0.9891 N.ar    1  UNL1        0.0000
     22 C          -0.6098    0.3678   -1.8093 C.ar    1  UNL1        0.0000
     23 C          -1.0334   -3.9108   -0.9036 C.3     1  UNL1        0.0000
     24 C          -1.6769    1.3556    0.5669 C.3     1  UNL1        0.0000
     25 C           1.1275    1.0486   -1.1140 C.3     1  UNL1        0.0000
     26 C          -1.2395    0.4996    0.4330 C.3     1  UNL1        0.0000
     27 C          -2.4995   -0.2629    0.1357 C.3     1  UNL1        0.0000
     28 C           1.8897   -0.7319    1.9054 C.3     1  UNL1        0.0000
     29 C           0.8805    0.5609    2.3078 C.3     1  UNL1        0.0000
     30 C          -1.6732   -1.6133    0.4523 C.3     1  UNL1        0.0000
     31 C          -0.3661    0.7649   -1.7033 C.ar    1  UNL1        0.0000
     32 N          -1.7530    2.7943    1.1007 N.ar    1  UNL1        0.0000
     33 N           0.4443    1.9090    2.0761 N.ar    1  UNL1        0.0000
     34 C          -0.1473    0.0300    1.2914 C.ar    1  UNL1        0.0000
     35 C           0.0498    1.1839   -0.0737 C.ar    1  UNL1        0.0000
     36 H          -2.1152    0.1760    2.9018 H       1  UNL1        0.0000
     37 H          -0.2079   -3.3383    1.6942 H       1  UNL1        0.0000
     38 H          -0.1465    1.5336    3.1149 H       1  UNL1        0.0000
     39 H          -0.2188   -2.5122   -2.4187 H       1  UNL1        0.0000
     40 H          -2.5135   -0.8120    1.3950 H       1  UNL1        0.0000
     41 H           2.2205   -2.1586    1.9643 H       1  UNL1        0.0000
     42 H          -2.5520   -0.4084   -1.2725 H       1  UNL1        0.0000
     43 H          -1.2635    2.4365   -3.7955 H       1  UNL1        0.0000
     44 H           2.2285    1.7133   -0.6622 H       1  UNL1        0.0000
     45 H           2.1455   -1.5033    0.1611 H       1  UNL1        0.0000
     46 H          -2.4671   -1.4305    2.4203 H       1  UNL1        0.0000
     47 H           0.3869   -1.2181   -3.6590 H       1  UNL1        0.0000
     48 H           3.6953   -0.4399   -2.0523 H       1  UNL1        0.0000
     49 H          -0.9615    0.7992    3.2601 H       1  UNL1        0.0000
     50 H          -0.9053   -1.9477    1.4870 H       1  UNL1        0.0000
     51 H          -1.8869   -1.5824   -1.3996 H       1  UNL1        0.0000
     52 H          -1.2728    3.2805   -0.4902 H       1  UNL1        0.0000
     53 H           0.2135   -3.5451   -1.6784 H       1  UNL1        0.0000
     54 H          -1.2321    2.1507   -0.4182 H       1  UNL1        0.0000
     55 H           0.7891   -1.4665   -0.7656 H       1  UNL1        0.0000
     56 H           2.8466    1.1462    1.0297 H       1  UNL1        0.0000
     57 H           0.9726   -2.1850   -3.0286 H       1  UNL1        0.0000
     58 H          -1.7293   -1.8062   -3.1238 H       1  UNL1        0.0000
     59 H           0.9760   -0.7756    2.1727 H       1  UNL1        0.0000
     60 H          -2.5229    2.2633   -0.1095 H       1  UNL1        0.0000
     61 H           0.7779    0.9604   -3.1964 H       1  UNL1        0.0000
     62 H           1.8748    1.9403   -3.2720 H       1  UNL1        0.0000
     63 H           1.2084    3.2189   -0.1901 H       1  UNL1        0.0000
     64 H           3.2420   -1.0276   -0.1259 H       1  UNL1        0.0000
     65 H          -1.3308   -3.1534    1.8886 H       1  UNL1        0.0000
     66 H          -1.6942    1.1642    2.3822 H       1  UNL1        0.0000
     67 H           2.3335    1.9164    1.7275 H       1  UNL1        0.0000
     68 EU          1.2636    1.8390    0.3070 Eu      1  UNL1        0.0000
@<TRIPOS>BOND
     1     1     2    2
     2     2     3   am
     3     3     4    1
     4     3     5    1
     5     5     6    1
     6     6     7    1
     7     2     8    1
     8     8     9   ar
     9     9    10   ar
    10     8    11   ar
    11    11    12   ar
    12    12    13   ar
    13    10    13   ar
    14    13    14   ar
    15    14    15   ar
    16    15    16   ar
    17    16    17   ar
    18    12    17   ar
    19    17    18   ar
    20    18    19   ar
    21    19    20    1
    22    20    21   ar
    23    21    22   ar
    24    22    23    1
    25    23    24    1
    26    23    25    1
    27    23    26    1
    28    26    27    1
    29    27    28    1
    30    28    29    1
    31    28    30    1
    32    22    31   ar
    33    28    31    1
    34    31    32   ar
    35    32    33   ar
    36    20    33   ar
    37    19    34   ar
    38    34    35   ar
    39    16    35   ar
    40     4    36    1
    41     4    37    1
    42     4    38    1
    43     5    39    1
    44     5    40    1
    45     6    41    1
    46     6    42    1
    47     7    43    1
    48     7    44    1
    49     7    45    1
    50     9    46    1
    51    10    47    1
    52    14    48    1
    53    15    49    1
    54    24    50    1
    55    24    51    1
    56    24    52    1
    57    25    53    1
    58    25    54    1
    59    25    55    1
    60    26    56    1
    61    26    57    1
    62    27    58    1
    63    27    59    1
    64    29    60    1
    65    29    61    1
    66    29    62    1
    67    30    63    1
    68    30    64    1
    69    30    65    1
    70    34    66    1
    71    35    67    1
    72    68     1    1
    73    68    33    1
    74    68    18    1
    75    68    11    1
@<TRIPOS>MOLECULE
*****
 68 75 0 0 0
SMALL
GASTEIGER

@<TRIPOS>ATOM
      1 O           1.2612   -0.3804   -1.0067 O.2     1  UNL1        0.0000
      2 C          -1.1927   -0.5387   -0.6190 C.2     1  UNL1        0.0000
      3 N          -1.1525   -0.9227    2.1986 N.am    1  UNL1        0.0000
      4 C          -1.2388   -0.6610    2.1961 C.3     1  UNL1        0.0000
      5 C          -0.8803   -0.8073    2.4627 C.3     1  UNL1        0.0000
      6 C           1.4356   -2.0642    2.8409 C.3     1  UNL1        0.0000
      7 C          -1.9554   -3.1365    0.2013 C.3     1  UNL1        0.0000
      8 C          -0.2489    2.4415    0.6302 C.ar    1  UNL1        0.0000
      9 C           1.6409    0.7763    1.0230 C.ar    1  UNL1        0.0000
     10 C          -0.0795   -0.0925   -3.8951 C.ar    1  UNL1        0.0000
     11 N           0.0030    2.6803   -0.1391 N.ar    1  UNL1        0.0000
     12 C           0.7221    2.2595   -2.0048 C.ar    1  UNL1        0.0000
     13 C          -1.6570    0.7643   -2.8628 C.ar    1  UNL1        0.0000
     14 C           0.3881   -2.3908    0.1227 C.ar    1  UNL1        0.0000
     15 C           0.3762   -2.3562    0.1523 C.ar    1  UNL1        0.0000
     16 C           0.4292   -0.8528   -2.2493 C.ar    1  UNL1        0.0000
     17 C           1.6462   -0.6361   -2.2335 C.ar    1  UNL1        0.0000
     18 N           0.8225   -0.5856    0.8159 N.ar    1  UNL1        0.0000
     19 C           0.1561   -0.9806    0.9962 C.ar    1  UNL1        0.0000
     20 C          -0.0006   -1.0527    1.1204 C.ar    1  UNL1        0.0000
     21 N          -1.7878    0.6746   -0.9891 N.ar    1  UNL1        0.0000
     22 C          -0.6098    0.3678   -1.8093 C.ar    1  UNL1        0.0000
     23 C          -1.0334   -3.9108   -0.9036 C.3     1  UNL1        0.0000
     24 C          -1.6769    1.3556    0.5669 C.3     1  UNL1        0.0000
     25 C           1.1275    1.0486   -1.1140 C.3     1  UNL1        0.0000
     26 C          -1.2395    0.4996    0.4330 C.3     1  UNL1        0.0000
     27 C          -2.4995   -0.2629    0.1357 C.3     1  UNL1        0.0000
     28 C           1.8897   -0.7319    1.9054 C.3     1  UNL1        0.0000
     29 C           0.8805    0.5609    2.3078 C.3     1  UNL1        0.0000
     30 C          -1.6732   -1.6133    0.4523 C.3     1  UNL1        0.0000
     31 C          -0.3661    0.7649   -1.7033 C.ar    1  UNL1        0.0000
     32 N          -1.7530    2.7943    1.1007 N.ar    1  UNL1        0.0000
     33 N           0.4443    1.9090    2.0761 N.ar    1  UNL1        0.0000
     34 C          -0.1473    0.0300    1.2914 C.ar    1  UNL1        0.0000
     35 C           0.0498    1.1839   -0.0737 C.ar    1  UNL1        0.0000
     36 H          -2.1152    0.1760    2.9018 H       1  UNL1        0.0000
     37 H          -0.2079   -3.3383    1.6942 H       1  UNL1        0.0000
     38 H          -0.1465    1.5336    3.1149 H       1  UNL1        0.0000
     39 H          -0.2188   -2.5122   -2.4187 H       1  UNL1        0.0000
     40 H          -2.5135   -0.8120    1.3950 H       1  UNL1        0.0000
     41 H           2.2205   -2.1586    1.9643 H       1  UNL1        0.0000
     42 H          -2.5520   -0.4084   -1.2725 H       1  UNL1        0.0000
     43 H          -1.2635    2.4365   -3.7955 H       1  UNL1        0.0000
     44 H           2.2285    1.7133   -0.6622 H       1  UNL1        0.0000
     45 H           2.1455   -1.5033    0.1611 H       1  UNL1        0.0000
     46 H          -2.4671   -1.4305    2.4203 H       1  UNL1        0.0000
     47 H           0.3869   -1.2181   -3.6590 H       1  UNL1        0.0000
     48 H           3.6953   -0.4399   -2.0523 H       1  UNL1        0.0000
     49 H          -0.9615    0.7992    3.2601 H       1  UNL1        0.0000
     50 H          -0.9053   -1.9477    1.4870 H       1  UNL1        0.0000
     51 H          -1.8869   -1.5824   -1.3996 H       1  UNL1        0.0000
     52 H          -1.2728    3.2805   -0.4902 H       1  UNL1        0.0000
     53 H           0.2135   -3.5451   -1.6784 H       1  UNL1        0.0000
     54 H          -1.2321    2.1507   -0.4182 H       1  UNL1        0.0000
     55 H           0.7891   -1.4665   -0.7656 H       1  UNL1        0.0000
     56 H           2.8466    1.1462    1.0297 H       1  UNL1        0.0000
     57 H           0.9726   -2.1850   -3.0286 H       1  UNL1        0.0000
     58 H          -1.7293   -1.8062   -3.1238 H       1  UNL1        0.0000
     59 H           0.9760   -0.7756    2.1727 H       1  UNL1        0.0000
     60 H          -2.5229    2.2633   -0.1095 H       1  UNL1        0.0000
     61 H           0.7779    0.9604   -3.1964 H       1  UNL1        0.0000
     62 H           1.8748    1.9403   -3.2720 H       1  UNL1        0.0000
     63 H           1.2084    3.2189   -0.1901 H       1  UNL1        0.0000
     64 H           3.2420   -1.0276   -0.1259 H       1  UNL1        0.0000
     65 H          -1.3308   -3.1534    1.8886 H       1  UNL1        0.0000
     66 H          -1.6942    1.1642    2.3822 H       1  UNL1        0.0000
     67 H           2.3335    1.9164    1.7275 H       1  UNL1        0.0000
     68 EU          1.2636    1.8390    0.3070 Eu      1  UNL1        0.0000
@<TRIPOS>BOND
     1     1     2    2
     2     2     3   am
     3     3     4    1
     4     3     5    1
     5     5     6    1
     6     6     7    1
     7     2     8    1
     8     8     9   ar
     9     9    10   ar
    10     8    11   ar
    11    11    12   ar
    12    12    13   ar
    13    10    13   ar
    14    13    14   ar
    15    14    15   ar
    16    15    16   ar
    17    16    17   ar
    18    12    17   ar
    19    17    18   ar
    20    18    19   ar
    21    19    20    1
    22    20    21   ar
    23    21    22   ar
    24    22    23    1
    25    23    24    1
    26    23    25    1
    27    23    26    1
    28    26    27    1
    29    27    28    1
    30    28    29    1
    31    28    30    1
    32    22    31   ar
    33    28    31    1
    34    31    32   ar
    35    32    33   ar
    36    20    33   ar
    37    19    34   ar
    38    34    35   ar
    39    16    35   ar
    40     4    36    1
    41     4    37    1
    42     4    38    1
    43     5    39    1
    44     5    40    1
    45     6    41    1
    46     6    42    1
    47     7    43    1
    48     7    44    1
    49     7    45    1
    50     9    46    1
    51    10    47    1
    52    14    48    1
    53    15    49    1
    54    24    50    1
    55    24    51    1
    56    24    52    1
    57    25    53    1
    58    25    54    1
    59    25    55    1
    60    26    56    1
    61    26    57    1
    62    27    58    1
    63    27    59    1
    64    29    60    1
    65    29    61    1
    66    29    62    1
    67    30    63    1
    68    30    64    1
    69    30    65    1
    70    34    66    1
    71    35    67    1
    72    68     1    1
    73    68    33    1
    74    68    18    1
    75    68    11    1
@<TRIPOS>MOLECULE
*****
 68 75 0 0 0
SMALL
GASTEIGER

@<TRIPOS>ATOM
      1 O           1.2612   -0.3804   -1.0067 O.2     1  UNL1        0.0000
      2 C          -1.1927   -0.5387   -0.6190 C.2     1  UNL1        0.0000
      3 N          -1.1525   -0.9227    2.1986 N.am    1  UNL1        0.0000
      4 C          -1.2388   -0.6610    2.1961 C.3     1  UNL1        0.0000
      5 C          -0.8803   -0.8073    2.4627 C.3     1  UNL1        0.0000
      6 C           1.4356   -2.0642    2.8409 C.3     1  UNL1        0.0000
      7 C          -1.9554   -3.1365    0.2013 C.3     1  UNL1        0.0000
      8 C          -0.2489    2.4415    0.6302 C.ar    1  UNL1        0.0000
      9 C           1.6409    0.7763    1.0230 C.ar    1  UNL1        0.0000
     10 C          -0.0795   -0.0925   -3.8951 C.ar    1  UNL1        0.0000
     11 N           0.0030    2.6803   -0.1391 N.ar    1  UNL1        0.0000
     12 C           0.7221    2.2595   -2.0048 C.ar    1  UNL1        0.0000
     13 C          -1.6570    0.7643   -2.8628 C.ar    1  UNL1        0.0000
     14 C           0.3881   -2.3908    0.1227 C.ar    1  UNL1        0.0000
     15 C           0.3762   -2.3562    0.1523 C.ar    1  UNL1        0.0000
     16 C           0.4292   -0.8528   -2.2493 C.ar    1  UNL1        0.0000
     17 C           1.6462   -0.6361   -2.2335 C.ar    1  UNL1        0.0000
     18 N           0.8225   -0.5856    0.8159 N.ar    1  UNL1        0.0000
     19 C           0.1561   -0.9806    0.9962 C.ar    1  UNL1        0.0000
     20 C          -0.0006   -1.0527    1.1204 C.ar    1  UNL1        0.0000
     21 N          -1.7878    0.6746   -0.9891 N.ar    1  UNL1        0.0000
     22 C          -0.6098    0.3678   -1.8093 C.ar    1  UNL1        0.0000
     23 C          -1.0334   -3.9108   -0.9036 C.3     1  UNL1        0.0000
     24 C          -1.6769    1.3556    0.5669 C.3     1  UNL1        0.0000
     25 C           1.1275    1.0486   -1.1140 C.3     1  UNL1        0.0000
     26 C          -1.2395    0.4996    0.4330 C.3     1  UNL1        0.0000
     27 C          -2.4995   -0.2629    0.1357 C.3     1  UNL1        0.0000
     28 C           1.8897   -0.7319    1.9054 C.3     1  UNL1        0.0000
     29 C           0.8805    0.5609    2.3078 C.3     1  UNL1        0.0000
     30 C          -1.6732   -1.6133    0.4523 C.3     1  UNL1        0.0000
     31 C          -0.3661    0.7649   -1.7033 C.ar    1  UNL1        0.0000
     32 N          -1.7530    2.7943    1.1007 N.ar    1  UNL1        0.0000
     33 N           0.4443    1.9090    2.0761 N.ar    1  UNL1        0.0000
     34 C          -0.1473    0.0300    1.2914 C.ar    1  UNL1        0.0000
     35 C           0.0498    1.1839   -0.0737 C.ar    1  UNL1        0.0000
     36 H          -2.1152    0.1760    2.9018 H       1  UNL1        0.0000
     37 H          -0.2079   -3.3383    1.6942 H       1  UNL1        0.0000
     38 H          -0.1465    1.5336    3.1149 H       1  UNL1        0.0000
     39 H          -0.2188   -2.5122   -2.4187 H       1  UNL1        0.0000
     40 H          -2.5135   -0.8120    1.3950 H       1  UNL1        0.0000
     41 H           2.2205   -2.1586    1.9643 H       1  UNL1        0.0000
     42 H          -2.5520   -0.4084   -1.2725 H       1  UNL1        0.0000
     43 H          -1.2635    2.4365   -3.7955 H       1  UNL1        0.0000
     44 H           2.2285    1.7133   -0.6622 H       1  UNL1        0.0000
     45 H           2.1455   -1.5033    0.1611 H       1  UNL1        0.0000
     46 H          -2.4671   -1.4305    2.4203 H       1  UNL1        0.0000
     47 H           0.3869   -1.2181   -3.6590 H       1  UNL1        0.0000
     48 H           3.6953   -0.4399   -2.0523 H       1  UNL1        0.0000
     49 H          -0.9615    0.7992    3.2601 H       1  UNL1        0.0000
     50 H          -0.9053   -1.9477    1.4870 H       1  UNL1        0.0000
     51 H          -1.8869   -1.5824   -1.3996 H       1  UNL1        0.0000
     52 H          -1.2728    3.2805   -0.4902 H       1  UNL1        0.0000
     53 H           0.2135   -3.5451   -1.6784 H       1  UNL1        0.0000
     54 H          -1.2321    2.1507   -0.4182 H       1  UNL1        0.0000
     55 H           0.7891   -1.4665   -0.7656 H       1  UNL1        0.0000
     56 H           2.8466    1.1462    1.0297 H       1  UNL1        0.0000
     57 H           0.9726   -2.1850   -3.0286 H       1  UNL1        0.0000
     58 H          -1.7293   -1.8062   -3.1238 H       1  UNL1        0.0000
     59 H           0.9760   -0.7756    2.1727 H       1  UNL1        0.0000
     60 H          -2.5229    2.2633   -0.1095 H       1  UNL1        0.0000
     61 H           0.7779    0.9604   -3.1964 H       1  UNL1        0.0000
     62 H           1.8748    1.9403   -3.2720 H       1  UNL1        0.0000
     63 H           1.2084    3.2189   -0.1901 H       1  UNL1        0.0000
     64 H           3.2420   -1.0276   -0.1259 H       1  UNL1        0.0000
     65 H          -1.3308   -3.1534    1.8886 H       1  UNL1        0.0000
     66 H          -1.6942    1.1642    2.3822 H       1  UNL1        0.0000
     67 H           2.3335    1.9164    1.7275 H       1  UNL1        0.0000
     68 EU          1.2636    1.8390    0.3070 Eu      1  UNL1        0.0000
@<TRIPOS>BOND
     1     1     2    2
     2     2     3   am
     3     3     4    1
     4     3     5    1
     5     5     6    1
     6     6     7    1
     7     2     8    1
     8     8     9   ar
     9     9    10   ar
    10     8    11   ar
    11    11    12   ar
    12    12    13   ar
    13    10    13   ar
    14    13    14   ar
    15    14    15   ar
    16    15    16   ar
    17    16    17   ar
    18    12    17   ar
    19    17    18   ar
    20    18    19   ar
    21    19    20    1
    22    20    21   ar
    23    21    22   ar
    24    22    23    1
    25    23    24    1
    26    23    25    1
    27    23    26    1
    28    26    27    1
    29    27    28    1
    30    28    29    1
    31    28    30    1
    32    22    31   ar
    33    28    31    1
    34    31    32   ar
    35    32    33   ar
    36    20    33   ar
    37    19    34   ar
    38    34    35   ar
    39    16    35   ar
    40     4    36    1
    41     4    37    1
    42     4    38    1
    43     5    39    1
    44     5    40    1
    45     6    41    1
    46     6    42    1
    47     7    43    1
    48     7    44    1
    49     7    45    1
    50     9    46    1
    51    10    47    1
    52    14    48    1
    53    15    49    1
    54    24    50    1
    55    24    51    1
    56    24    52    1
    57    25    53    1
    58    25    54    1
    59    25    55    1
    60    26    56    1
    61    26    57    1
    62    27    58    1
    63    27    59    1
    64    29    60    1
    65    29    61    1
    66    29    62    1
    67    30    63    1
    68    30    64    1
    69    30    65    1
    70    34    66    1
    71    35    67    1
    72    68     1    1
    73    68    33    1
    74    68    18    1
    75    68    11    1
@<TRIPOS>MOLECULE
*****
 68 75 0 0 0
SMALL
GASTEIGER

@<TRIPOS>ATOM
      1 O           1.2612   -0.3804   -1.0067 O.2     1  UNL1        0.0000
      2 C          -1.1927   -0.5387   -0.6190 C.2     1  UNL1        0.0000
      3 N          -1.1525   -0.9227    2.1986 N.am    1  UNL1        0.0000
      4 C          -1.2388   -0.6610    2.1961 C.3     1  UNL1        0.0000
      5 C          -0.8803   -0.8073    2.4627 C.3     1  UNL1        0.0000
      6 C           1.4356   -2.0642    2.8409 C.3     1  UNL1        0.0000
      7 C          -1.9554   -3.1365    0.2013 C.3     1  UNL1        0.0000
      8 C          -0.2489    2.4415    0.6302 C.ar    1  UNL1        0.0000
      9 C           1.6409    0.7763    1.0230 C.ar    1  UNL1        0.0000
     10 C          -0.0795   -0.0925   -3.8951 C.ar    1  UNL1        0.0000
     11 N           0.0030    2.6803   -0.1391 N.ar    1  UNL1        0.0000
     12 C           0.7221    2.2595   -2.0048 C.ar    1  UNL1        0.0000
     13 C          -1.6570    0.7643   -2.8628 C.ar    1  UNL1        0.0000
     14 C           0.3881   -2.3908    0.1227 C.ar    1  UNL1        0.0000
     15 C           0.3762   -2.3562    0.1523 C.ar    1  UNL1        0.0000
     16 C           0.4292   -0.8528   -2.2493 C.ar    1  UNL1        0.0000
     17 C           1.6462   -0.6361   -2.2335 C.ar    1  UNL1        0.0000
     18 N           0.8225   -0.5856    0.8159 N.ar    1  UNL1        0.0000
     19 C           0.1561   -0.9806    0.9962 C.ar    1  UNL1        0.0000
     20 C          -0.0006   -1.0527    1.1204 C.ar    1  UNL1        0.0000
     21 N          -1.7878    0.6746   -0.9891 N.ar    1  UNL1        0.0000
     22 C          -0.6098    0.3678   -1.8093 C.ar    1  UNL1        0.0000
     23 C          -1.0334   -3.9108   -0.9036 C.3     1  UNL1        0.0000
     24 C          -1.6769    1.3556    0.5669 C.3     1  UNL1        0.0000
     25 C           1.1275    1.0486   -1.1140 C.3     1  UNL1        0.0000
     26 C          -1.2395    0.4996    0.4330 C.3     1  UNL1        0.0000
     27 C          -2.4995   -0.2629    0.1357 C.3     1  UNL1        0.0000
     28 C           1.8897   -0.7319    1.9054 C.3     1  UNL1        0.0000
     29 C           0.8805    0.5609    2.3078 C.3     1  UNL1        0.0000
     30 C          -1.6732   -1.6133    0.4523 C.3     1  UNL1        0.0000
     31 C          -0.3661    0.7649   -1.7033 C.ar    1  UNL1        0.0000
     32 N          -1.7530    2.7943    1.1007 N.ar    1  UNL1        0.0000
     33 N           0.4443    1.9090    2.0761 N.ar    1  UNL1        0.0000
     34 C          -0.1473    0.0300    1.2914 C.ar    1  UNL1        0.0000
     35 C           0.0498    1.1839   -0.0737 C.ar    1  UNL1        0.0000
     36 H          -2.1152    0.1760    2.9018 H       1  UNL1        0.0000
     37 H          -0.2079   -3.3383    1.6942 H       1  UNL1        0.0000
     38 H          -0.1465    1.5336    3.1149 H       1  UNL1        0.0000
     39 H          -0.2188   -2.5122   -2.4187 H       1  UNL1        0.0000
     40 H          -2.5135   -0.8120    1.3950 H       1  UNL1        0.0000
     41 H           2.2205   -2.1586    1.9643 H       1  UNL1        0.0000
     42 H          -2.5520   -0.4084   -1.2725 H       1  UNL1        0.0000
     43 H          -1.2635    2.4365   -3.7955 H       1  UNL1        0.0000
     44 H           2.2285    1.7133   -0.6622 H       1  UNL1        0.0000
     45 H           2.1455   -1.5033    0.1611 H       1  UNL1        0.0000
     46 H          -2.4671   -1.4305    2.4203 H       1  UNL1        0.0000
     47 H           0.3869   -1.2181   -3.6590 H       1  UNL1        0.0000
     48 H           3.6953   -0.4399   -2.0523 H       1  UNL1        0.0000
     49 H          -0.9615    0.7992    3.2601 H       1  UNL1        0.0000
     50 H          -0.9053   -1.9477    1.4870 H       1  UNL1        0.0000
     51 H          -1.8869   -1.5824   -1.3996 H       1  UNL1        0.0000
     52 H          -1.2728    3.2805   -0.4902 H       1  UNL1        0.0000
     53 H           0.2135   -3.5451   -1.6784 H       1  UNL1        0.0000
     54 H          -1.2321    2.1507   -0.4182 H       1  UNL1        0.0000
     55 H           0.7891   -1.4665   -0.7656 H       1  UNL1        0.0000
     56 H           2.8466    1.1462    1.0297 H       1  UNL1        0.0000
     57 H           0.9726   -2.1850   -3.0286 H       1  UNL1        0.0000
     58 H          -1.7293   -1.8062   -3.1238 H       1  UNL1        0.0000
     59 H           0.9760   -0.7756    2.1727 H       1  UNL1        0.0000
     60 H          -2.5229    2.2633   -0.1095 H       1  UNL1        0.0000
     61 H           0.7779    0.9604   -3.1964 H       1  UNL1        0.0000
     62 H           1.8748    1.9403   -3.2720 H       1  UNL1        0.0000
     63 H           1.2084    3.2189   -0.1901 H       1  UNL1        0.0000
     64 H           3.2420   -1.0276   -0.1259 H       1  UNL1        0.0000
     65 H          -1.3308   -3.1534    1.8886 H       1  UNL1        0.0000
     66 H          -1.6942    1.1642    2.3822 H       1  UNL1        0.0000
     67 H           2.3335    1.9164    1.7275 H       1  UNL1        0.0000
     68 EU          1.2636    1.8390    0.3070 Eu      1  UNL1        0.0000
@<TRIPOS>BOND
     1     1     2    2
     2     2     3   am
     3     3     4    1
     4     3     5    1
     5     5     6    1
     6     6     7    1
     7     2     8    1
     8     8     9   ar
     9     9    10   ar
    10     8    11   ar
    11    11    12   ar
    12    12    13   ar
    13    10    13   ar
    14    13    14   ar
    15    14    15   ar
    16    15    16   ar
    17    16    17   ar
    18    12    17   ar
    19    17    18   ar
    20    18    19   ar
    21    19    20    1
    22    20    21   ar
    23    21    22   ar
    24    22    23    1
    25    23    24    1
    26    23    25    1
    27    23    26    1
    28    26    27    1
    29    27    28    1
    30    28    29    1
    31    28    30    1
    32    22    31   ar
    33    28    31    1
    34    31    32   ar
    35    32    33   ar
    36    20    33   ar
    37    19    34   ar
    38    34    35   ar
    39    16    35   ar
    40     4    36    1
    41     4    37    1
    42     4    38    1
    43     5    39    1
    44     5    40    1
    45     6    41    1
    46     6    42    1
    47     7    43    1
    48     7    44    1
    49     7    45    1
    50     9    46    1
    51    10    47    1
    52    14    48    1
    53    15    49    1
    54    24    50    1
    55    24    51    1
    56    24    52    1
    57    25    53    1
    58    25    54    1
    59    25    55    1
    60    26    56    1
    61    26    57    1
    62    27    58    1
    63    27    59    1
    64    29    60    1
    65    29    61    1
    66    29    62    1
    67    30    63    1
    68    30    64    1
    69    30    65    1
    70    34    66    1
    71    35    67    1
    72    68     1    1
    73    68    33    1
    74    68    18    1
    75    68    11    1
@<TRIPOS>MOLECULE
*****
 68 75 0 0 0
SMALL
GASTEIGER

@<TRIPOS>ATOM
      1 O           1.2612   -0.3804   -1.0067 O.2     1  UNL1        0.0000
      2 C          -1.1927   -0.5387   -0.6190 C.2     1  UNL1        0.0000
      3 N          -1.1525   -0.9227    2.1986 N.am    1  UNL1        0.0000
      4 C          -1.2388   -0.6610    2.1961 C.3     1  UNL1        0.0000
      5 C          -0.8803   -0.8073    2.4627 C.3     1  UNL1        0.0000
      6 C           1.4356   -2.0642    2.8409 C.3     1  UNL1        0.0000
      7 C          -1.9554   -3.1365    0.2013 C.3     1  UNL1        0.0000
      8 C          -0.2489    2.4415    0.6302 C.ar    1  UNL1        0.0000
      9 C           1.6409    0.7763    1.0230 C.ar    1  UNL1        0.0000
     10 C          -0.0795   -0.0925   -3.8951 C.ar    1  UNL1        0.0000
     11 N           0.0030    2.6803   -0.1391 N.ar    1  UNL1        0.0000
     12 C           0.7221    2.2595   -2.0048 C.ar    1  UNL1        0.0000
     13 C          -1.6570    0.7643   -2.8628 C.ar    1  UNL1        0.0000
     14 C           0.3881   -2.3908    0.1227 C.ar    1  UNL1        0.0000
     15 C           0.3762   -2.3562    0.1523 C.ar    1  UNL1        0.0000
     16 C           0.4292   -0.8528   -2.2493 C.ar    1  UNL1        0.0000
     17 C           1.6462   -0.6361   -2.2335 C.ar    1  UNL1        0.0000
     18 N           0.8225   -0.5856    0.8159 N.ar    1  UNL1        0.0000
     19 C           0.1561   -0.9806    0.9962 C.ar    1  UNL1        0.0000
     20 C          -0.0006   -1.0527    1.1204 C.ar    1  UNL1        0.0000
     21 N          -1.7878    0.6746   -0.9891 N.ar    1  UNL1        0.0000
     22 C          -0.6098    0.3678   -1.8093 C.ar    1  UNL1        0.0000
     23 C          -1.0334   -3.9108   -0.9036 C.3     1  UNL1        0.0000
     24 C          -1.6769    1.3556    0.5669 C.3     1  UNL1        0.0000
     25 C           1.1275    1.0486   -1.1140 C.3     1  UNL1        0.0000
     26 C          -1.2395    0.4996    0.4330 C.3     1  UNL1        0.0000
     27 C          -2.4995   -0.2629    0.1357 C.3     1  UNL1        0.0000
     28 C           1.8897   -0.7319    1.9054 C.3     1  UNL1        0.0000
     29 C           0.8805    0.5609    2.3078 C.3     1  UNL1        0.0000
     30 C          -1.6732   -1.6133    0.4523 C.3     1  UNL1        0.0000
     31 C          -0.3661    0.7649   -1.7033 C.ar    1  UNL1        0.0000
     32 N          -1.7530    2.7943    1.1007 N.ar    1  UNL1        0.0000
     33 N           0.4443    1.9090    2.0761 N.ar    1  UNL1        0.0000
     34 C          -0.1473    0.0300    1.2914 C.ar    1  UNL1        0.0000
     35 C           0.0498    1.1839   -0.0737 C.ar    1  UNL1        0.0000
     36 H          -2.1152    0.1760    2.9018 H       1  UNL1        0.0000
     37 H          -0.2079   -3.3383    1.6942 H       1  UNL1        0.0000
     38 H          -0.1465    1.5336    3.1149 H       1  UNL1        0.0000
     39 H          -0.2188   -2.5122   -2.4187 H       1  UNL1        0.0000
     40 H          -2.5135   -0.8120    1.3950 H       1  UNL1        0.0000
     41 H           2.2205   -2.1586    1.9643 H       1  UNL1        0.0000
     42 H          -2.5520   -0.4084   -1.2725 H       1  UNL1        0.0000
     43 H          -1.2635    2.4365   -3.7955 H       1  UNL1        0.0000
     44 H           2.2285    1.7133   -0.6622 H       1  UNL1        0.0000
     45 H           2.1455   -1.5033    0.1611 H       1  UNL1        0.0000
     46 H          -2.4671   -1.4305    2.4203 H       1  UNL1        0.0000
     47 H           0.3869   -1.2181   -3.6590 H       1  UNL1        0.0000
     48 H           3.6953   -0.4399   -2.0523 H       1  UNL1        0.0000
     49 H          -0.9615    0.7992    3.2601 H       1  UNL1        0.0000
     50 H          -0.9053   -1.9477    1.4870 H       1  UNL1        0.0000
     51 H          -1.8869   -1.5824   -1.3996 H       1  UNL1        0.0000
     52 H          -1.2728    3.2805   -0.4902 H       1  UNL1        0.0000
     53 H           0.2135   -3.5451   -1.6784 H       1  UNL1        0.0000
     54 H          -1.2321    2.1507   -0.4182 H       1  UNL1        0.0000
     55 H           0.7891   -1.4665   -0.7656 H       1  UNL1        0.0000
     56 H           2.8466    1.1462    1.0297 H       1  UNL1        0.0000
     57 H           0.9726   -2.1850   -3.0286 H       1  UNL1        0.0000
     58 H          -1.7293   -1.8062   -3.1238 H       1  UNL1        0.0000
     59 H           0.9760   -0.7756    2.1727 H       1  UNL1        0.0000
     60 H          -2.5229    2.2633   -0.1095 H       1  UNL1        0.0000
     61 H           0.7779    0.9604   -3.1964 H       1  UNL1        0.0000
     62 H           1.8748    1.9403   -3.2720 H       1  UNL1        0.0000
     63 H           1.2084    3.2189   -0.1901 H       1  UNL1        0.0000
     64 H           3.2420   -1.0276   -0.1259 H       1  UNL1        0.0000
     65 H          -1.3308   -3.1534    1.8886 H       1  UNL1        0.0000
     66 H          -1.6942    1.1642    2.3822 H       1  UNL1        0.0000
     67 H           2.3335    1.9164    1.7275 H       1  UNL1        0.0000
     68 EU          1.2636    1.8390    0.3070 Eu      1  UNL1        0.0000
@<TRIPOS>BOND
     1     1     2    2
     2     2     3   am
     3     3     4    1
     4     3     5    1
     5     5     6    1
     6     6     7    1
     7     2     8    1
     8     8     9   ar
     9     9    10   ar
    10     8    11   ar
    11    11    12   ar
    12    12    13   ar
    13    10    13   ar
    14    13    14   ar
    15    14    15   ar
    16    15    16   ar
    17    16    17   ar
    18    12    17   ar
    19    17    18   ar
    20    18    19   ar
    21    19    20    1
    22    20    21   ar
    23    21    22   ar
    24    22    23    1
    25    23    24    1
    26    23    25    1
    27    23    26    1
    28    26    27    1
    29    27    28    1
    30    28    29    1
    31    28    30    1
    32    22    31   ar
    33    28    31    1
    34    31    32   ar
    35    32    33   ar
    36    20    33   ar
    37    19    34   ar
    38    34    35   ar
    39    16    35   ar
    40     4    36    1
    41     4    37    1
    42     4    38    1
    43     5    39    1
    44     5    40    1
    45     6    41    1
    46     6    42    1
    47     7    43    1
    48     7    44    1
    49     7    45    1
    50     9    46    1
    51    10    47    1
    52    14    48    1
    53    15    49    1
    54    24    50    1
    55    24    51    1
    56    24    52    1
    57    25    53    1
    58    25    54    1
    59    25    55    1
    60    26    56    1
    61    26    57    1
    62    27    58    1
    63    27    59    1
    64    29    60    1
    65    29    61    1
    66    29    62    1
    67    30    63    1
    68    30    64    1
    69    30    65    1
    70    34    66    1
    71    35    67    1
    72    68     1    1
    73    68    33    1
    74    68    18    1
    75    68    11    1
@<TRIPOS>MOLECULE
*****
 68 75 0 0 0
SMALL
GASTEIGER

@<TRIPOS>ATOM
      1 O           1.2612   -0.3804   -1.0067 O.2     1  UNL1        0.0000
      2 C          -1.1927   -0.5387   -0.6190 C.2     1  UNL1        0.0000
      3 N          -1.1525   -0.9227    2.1986 N.am    1  UNL1        0.0000
      4 C          -1.2388   -0.6610    2.1961 C.3     1  UNL1        0.0000
      5 C          -0.8803   -0.8073    2.4627 C.3     1  UNL1        0.0000
      6 C           1.4356   -2.0642    2.8409 C.3     1  UNL1        0.0000
      7 C          -1.9554   -3.1365    0.2013 C.3     1  UNL1        0.0000
      8 C          -0.2489    2.4415    0.6302 C.ar    1  UNL1        0.0000
      9 C           1.6409    0.7763    1.0230 C.ar    1  UNL1        0.0000
     10 C          -0.0795   -0.0925   -3.8951 C.ar    1  UNL1        0.0000
     11 N           0.0030    2.6803   -0.1391 N.ar    1  UNL1        0.0000
     12 C           0.7221    2.2595   -2.0048 C.ar    1  UNL1        0.0000
     13 C          -1.6570    0.7643   -2.8628 C.ar    1  UNL1        0.0000
     14 C           0.3881   -2.3908    0.1227 C.ar    1  UNL1        0.0000
     15 C           0.3762   -2.3562    0.1523 C.ar    1  UNL1        0.0000
     16 C           0.4292   -0.8528   -2.2493 C.ar    1  UNL1        0.0000
     17 C           1.6462   -0.6361   -2.2335 C.ar    1  UNL1        0.0000
     18 N           0.8225   -0.5856    0.8159 N.ar    1  UNL1        0.0000
     19 C           0.1561   -0.9806    0.9962 C.ar    1  UNL1        0.0000
     20 C          -0.0006   -1.0527    1.1204 C.ar    1  UNL1        0.0000
     21 N          -1.7878    0.6746   -0.9891 N.ar    1  UNL1        0.0000
     22 C          -0.6098    0.3678   -1.8093 C.ar    1  UNL1        0.0000
     23 C          -1.0334   -3.9108   -0.9036 C.3     1  UNL1        0.0000
     24 C          -1.6769    1.3556    0.5669 C.3     1  UNL1        0.0000
     25 C           1.1275    1.0486   -1.1140 C.3     1  UNL1        0.0000
     26 C          -1.2395    0.4996    0.4330 C.3     1  UNL1        0.0000
     27 C          -2.4995   -0.2629    0.1357 C.3     1  UNL1        0.0000
     28 C           1.8897   -0.7319    1.9054 C.3     1  UNL1        0.0000
     29 C           0.8805    0.5609    2.3078 C.3     1  UNL1        0.0000
     30 C          -1.6732   -1.6133    0.4523 C.3     1  UNL1        0.0000
     31 C          -0.3661    0.7649   -1.7033 C.ar    1  UNL1        0.0000
     32 N          -1.7530    2.7943    1.1007 N.ar    1  UNL1        0.0000
     33 N           0.4443    1.9090    2.0761 N.ar    1  UNL1        0.0000
     34 C          -0.1473    0.0300    1.2914 C.ar    1  UNL1        0.0000
     35 C           0.0498    1.1839   -0.0737 C.ar    1  UNL1        0.0000
     36 H          -2.1152    0.1760    2.9018 H       1  UNL1        0.0000
     37 H          -0.2079   -3.3383    1.6942 H       1  UNL1        0.0000
     38 H          -0.1465    1.5336    3.1149 H       1  UNL1        0.0000
     39 H          -0.2188   -2.5122   -2.4187 H       1  UNL1        0.0000
     40 H          -2.5135   -0.8120    1.3950 H       1  UNL1        0.0000
     41 H           2.2205   -2.1586    1.9643 H       1  UNL1        0.0000
     42 H          -2.5520   -0.4084   -1.2725 H       1  UNL1        0.0000
     43 H          -1.2635    2.4365   -3.7955 H       1  UNL1        0.0000
     44 H           2.2285    1.7133   -0.6622 H       1  UNL1        0.0000
     45 H           2.1455   -1.5033    0.1611 H       1  UNL1        0.0000
     46 H          -2.4671   -1.4305    2.4203 H       1  UNL1        0.0000
     47 H           0.3869   -1.2181   -3.6590 H       1  UNL1        0.0000
     48 H           3.6953   -0.4399   -2.0523 H       1  UNL1        0.0000
     49 H          -0.9615    0.7992    3.2601 H       1  UNL1        0.0000
     50 H          -0.9053   -1.9477    1.4870 H       1  UNL1        0.0000
     51 H          -1.8869   -1.5824   -1.3996 H       1  UNL1        0.0000
     52 H          -1.2728    3.2805   -0.4902 H       1  UNL1        0.0000
     53 H           0.2135   -3.5451   -1.6784 H       1  UNL1        0.0000
     54 H          -1.2321    2.1507   -0.4182 H       1  UNL1        0.0000
     55 H           0.7891   -1.4665   -0.7656 H       1  UNL1        0.0000
     56 H           2.8466    1.1462    1.0297 H       1  UNL1        0.0000
     57 H           0.9726   -2.1850   -3.0286 H       1  UNL1        0.0000
     58 H          -1.7293   -1.8062   -3.1238 H       1  UNL1        0.0000
     59 H           0.9760   -0.7756    2.1727 H       1  UNL1        0.0000
     60 H          -2.5229    2.2633   -0.1095 H       1  UNL1        0.0000
     61 H           0.7779    0.9604   -3.1964 H       1  UNL1        0.0000
     62 H           1.8748    1.9403   -3.2720 H       1  UNL1        0.0000
     63 H           1.2084    3.2189   -0.1901 H       1  UNL1        0.0000
     64 H           3.2420   -1.0276   -0.1259 H       1  UNL1        0.0000
     65 H          -1.3308   -3.1534    1.8886 H       1  UNL1        0.0000
     66 H          -1.6942    1.1642    2.3822 H       1  UNL1        0.0000
     67 H           2.3335    1.9164    1.7275 H       1  UNL1        0.0000
     68 EU          1.2636    1.8390    0.3070 Eu      1  UNL1        0.0000
@<TRIPOS>BOND
     1     1     2    2
     2     2     3   am
     3     3     4    1
     4     3     5    1
     5     5     6    1
     6     6     7    1
     7     2     8    1
     8     8     9   ar
     9     9    10   ar
    10     8    11   ar
    11    11    12   ar
    12    12    13   ar
    13    10    13   ar
    14    13    14   ar
    15    14    15   ar
    16    15    16   ar
    17    16    17   ar
    18    12    17   ar
    19    17    18   ar
    20    18    19   ar
    21    19    20    1
    22    20    21   ar
    23    21    22   ar
    24    22    23    1
    25    23    24    1
    26    23    25    1
    27    23    26    1
    28    26    27    1
    29    27    28    1
    30    28    29    1
    31    28    30    1
    32    22    31   ar
    33    28    31    1
    34    31    32   ar
    35    32    33   ar
    36    20    33   ar
    37    19    34   ar
    38    34    35   ar
    39    16    35   ar
    40     4    36    1
    41     4    37    1
    42     4    38    1
    43     5    39    1
    44     5    40    1
    45     6    41    1
    46     6    42    1
    47     7    43    1
    48     7    44    1
    49     7    45    1
    50     9    46    1
    51    10    47    1
    52    14    48    1
    53    15    49    1
    54    24    50    1
    55    24    51    1
    56    24    52    1
    57    25    53    1
    58    25    54    1
    59    25    55    1
    60    26    56    1
    61    26    57    1
    62    27    58    1
    63    27    59    1
    64    29    60    1
    65    29    61    1
    66    29    62    1
    67    30    63    1
    68    30    64    1
    69    30    65    1
    70    34    66    1
    71    35    67    1
    72    68     1    1
    73    68    33    1
    74    68    18    1
    75    68    11    1
@<TRIPOS>MOLECULE
*****
 68 75 0 0 0
SMALL
GASTEIGER

@<TRIPOS>ATOM
      1 O           1.2612   -0.3804   -1.0067 O.2     1  UNL1        0.0000
      2 C          -1.1927   -0.5387   -0.6190 C.2     1  UNL1        0.0000
      3 N          -1.1525   -0.9227    2.1986 N.am    1  UNL1        0.0000
      4 C          -1.2388   -0.6610    2.1961 C.3     1  UNL1        0.0000
      5 C          -0.8803   -0.8073    2.4627 C.3     1  UNL1        0.0000
      6 C           1.4356   -2.0642    2.8409 C.3     1  UNL1        0.0000
      7 C          -1.9554   -3.1365    0.2013 C.3     1  UNL1        0.0000
      8 C          -0.2489    2.4415    0.6302 C.ar    1  UNL1        0.0000
      9 C           1.6409    0.7763    1.0230 C.ar    1  UNL1        0.0000
     10 C          -0.0795   -0.0925   -3.8951 C.ar    1  UNL1        0.0000
     11 N           0.0030    2.6803   -0.1391 N.ar    1  UNL1        0.0000
     12 C           0.7221    2.2595   -2.0048 C.ar    1  UNL1        0.0000
     13 C          -1.6570    0.7643   -2.8628 C.ar    1  UNL1        0.0000
     14 C           0.3881   -2.3908    0.1227 C.ar    1  UNL1        0.0000
     15 C           0.3762   -2.3562    0.1523 C.ar    1  UNL1        0.0000
     16 C           0.4292   -0.8528   -2.2493 C.ar    1  UNL1        0.0000
     17 C           1.6462   -0.6361   -2.2335 C.ar    1  UNL1        0.0000
     18 N           0.8225   -0.5856    0.8159 N.ar    1  UNL1        0.0000
     19 C           0.1561   -0.9806    0.9962 C.ar    1  UNL1        0.0000
     20 C          -0.0006   -1.0527    1.1204 C.ar    1  UNL1        0.0000
     21 N          -1.7878    0.6746   -0.9891 N.ar    1  UNL1        0.0000
     22 C          -0.6098    0.3678   -1.8093 C.ar    1  UNL1        0.0000
     23 C          -1.0334   -3.9108   -0.9036 C.3     1  UNL1        0.0000
     24 C          -1.6769    1.3556    0.5669 C.3     1  UNL1        0.0000
     25 C           1.1275    1.0486   -1.1140 C.3     1  UNL1        0.0000
     26 C          -1.2395    0.4996    0.4330 C.3     1  UNL1        0.0000
     27 C          -2.4995   -0.2629    0.1357 C.3     1  UNL1        0.0000
     28 C           1.8897   -0.7319    1.9054 C.3     1  UNL1        0.0000
     29 C           0.8805    0.5609    2.3078 C.3     1  UNL1        0.0000
     30 C          -1.6732   -1.6133    0.4523 C.3     1  UNL1        0.0000
     31 C          -0.3661    0.7649   -1.7033 C.ar    1  UNL1        0.0000
     32 N          -1.7530    2.7943    1.1007 N.ar    1  UNL1        0.0000
     33 N           0.4443    1.9090    2.0761 N.ar    1  UNL1        0.0000
     34 C          -0.1473    0.0300    1.2914 C.ar    1  UNL1        0.0000
     35 C           0.0498    1.1839   -0.0737 C.ar    1  UNL1        0.0000
     36 H          -2.1152    0.1760    2.9018 H       1  UNL1        0.0000
     37 H          -0.2079   -3.3383    1.6942 H       1  UNL1        0.0000
     38 H          -0.1465    1.5336    3.1149 H       1  UNL1        0.0000
     39 H          -0.2188   -2.5122   -2.4187 H       1  UNL1        0.0000
     40 H          -2.5135   -0.8120    1.3950 H       1  UNL1        0.0000
     41 H           2.2205   -2.1586    1.9643 H       1  UNL1        0.0000
     42 H          -2.5520   -0.4084   -1.2725 H       1  UNL1        0.0000
     43 H          -1.2635    2.4365   -3.7955 H       1  UNL1        0.0000
     44 H           2.2285    1.7133   -0.6622 H       1  UNL1        0.0000
     45 H           2.1455   -1.5033    0.1611 H       1  UNL1        0.0000
     46 H          -2.4671   -1.4305    2.4203 H       1  UNL1        0.0000
     47 H           0.3869   -1.2181   -3.6590 H       1  UNL1        0.0000
     48 H           3.6953   -0.4399   -2.0523 H       1  UNL1        0.0000
     49 H          -0.9615    0.7992    3.2601 H       1  UNL1        0.0000
     50 H          -0.9053   -1.9477    1.4870 H       1  UNL1        0.0000
     51 H          -1.8869   -1.5824   -1.3996 H       1  UNL1        0.0000
     52 H          -1.2728    3.2805   -0.4902 H       1  UNL1        0.0000
     53 H           0.2135   -3.5451   -1.6784 H       1  UNL1        0.0000
     54 H          -1.2321    2.1507   -0.4182 H       1  UNL1        0.0000
     55 H           0.7891   -1.4665   -0.7656 H       1  UNL1        0.0000
     56 H           2.8466    1.1462    1.0297 H       1  UNL1        0.0000
     57 H           0.9726   -2.1850   -3.0286 H       1  UNL1        0.0000
     58 H          -1.7293   -1.8062   -3.1238 H       1  UNL1        0.0000
     59 H           0.9760   -0.7756    2.1727 H       1  UNL1        0.0000
     60 H          -2.5229    2.2633   -0.1095 H       1  UNL1        0.0000
     61 H           0.7779    0.9604   -3.1964 H       1  UNL1        0.0000
     62 H           1.8748    1.9403   -3.2720 H       1  UNL1        0.0000
     63 H           1.2084    3.2189   -0.1901 H       1  UNL1        0.0000
     64 H           3.2420   -1.0276   -0.1259 H       1  UNL1        0.0000
     65 H          -1.3308   -3.1534    1.8886 H       1  UNL1        0.0000
     66 H          -1.6942    1.1642    2.3822 H       1  UNL1        0.0000
     67 H           2.3335    1.9164    1.7275 H       1  UNL1        0.0000
     68 EU          1.2636    1.8390    0.3070 Eu      1  UNL1        0.0000
@<TRIPOS>BOND
     1     1     2    2
     2     2     3   am
     3     3     4    1
     4     3     5    1
     5     5     6    1
     6     6     7    1
     7     2     8    1
     8     8     9   ar
     9     9    10   ar
    10     8    11   ar
    11    11    12   ar
    12    12    13   ar
    13    10    13   ar
    14    13    14   ar
    15    14    15   ar
    16    15    16   ar
    17    16    17   ar
    18    12    17   ar
    19    17    18   ar
    20    18    19   ar
    21    19    20    1
    22    20    21   ar
    23    21    22   ar
    24    22    23    1
    25    23    24    1
    26    23    25    1
    27    23    26    1
    28    26    27    1
    29    27    28    1
    30    28    29    1
    31    28    30    1
    32    22    31   ar
    33    28    31    1
    34    31    32   ar
    35    32    33   ar
    36    20    33   ar
    37    19    34   ar
    38    34    35   ar
    39    16    35   ar
    40     4    36    1
    41     4    37    1
    42     4    38    1
    43     5    39    1
    44     5    40    1
    45     6    41    1
    46     6    42    1
    47     7    43    1
    48     7    44    1
    49     7    45    1
    50     9    46    1
    51    10    47    1
    52    14    48    1
    53    15    49    1
    54    24    50    1
    55    24    51    1
    56    24    52    1
    57    25    53    1
    58    25    54    1
    59    25    55    1
    60    26    56    1
    61    26    57    1
    62    27    58    1
    63    27    59    1
    64    29    60    1
    65    29    61    1
    66    29    62    1
    67    30    63    1
    68    30    64    1
    69    30    65    1
    70    34    66    1
    71    35    67    1
    72    68     1    1
    73    68    33    1
    74    68    18    1
    75    68    11    1
@<TRIPOS>MOLECULE
*****
 68 75 0 0 0
SMALL
GASTEIGER

@<TRIPOS>ATOM
      1 O           1.2612   -0.3804   -1.0067 O.2     1  UNL1        0.0000
      2 C          -1.1927   -0.5387   -0.6190 C.2     1  UNL1        0.0000
      3 N          -1.1525   -0.9227    2.1986 N.am    1  UNL1        0.0000
      4 C          -1.2388   -0.6610    2.1961 C.3     1  UNL1        0.0000
      5 C          -0.8803   -0.8073    2.4627 C.3     1  UNL1        0.0000
      6 C           1.4356   -2.0642    2.8409 C.3     1  UNL1        0.0000
      7 C          -1.9554   -3.1365    0.2013 C.3     1  UNL1        0.0000
      8 C          -0.2489    2.4415    0.6302 C.ar    1  UNL1        0.0000
      9 C           1.6409    0.7763    1.0230 C.ar    1  UNL1        0.0000
     10 C          -0.0795   -0.0925   -3.8951 C.ar    1  UNL1        0.0000
     11 N           0.0030    2.6803   -0.1391 N.ar    1  UNL1        0.0000
     12 C           0.7221    2.2595   -2.0048 C.ar    1  UNL1        0.0000
     13 C          -1.6570    0.7643   -2.8628 C.ar    1  UNL1        0.0000
     14 C           0.3881   -2.3908    0.1227 C.ar    1  UNL1        0.0000
     15 C           0.3762   -2.3562    0.1523 C.ar    1  UNL1        0.0000
     16 C           0.4292   -0.8528   -2.2493 C.ar    1  UNL1        0.0000
     17 C           1.6462   -0.6361   -2.2335 C.ar    1  UNL1        0.0000
     18 N           0.8225   -0.5856    0.8159 N.ar    1  UNL1        0.0000
     19 C           0.1561   -0.9806    0.9962 C.ar    1  UNL1        0.0000
     20 C          -0.0006   -1.0527    1.1204 C.ar    1  UNL1        0.0000
     21 N          -1.7878    0.6746   -0.9891 N.ar    1  UNL1        0.0000
     22 C          -0.6098    0.3678   -1.8093 C.ar    1  UNL1        0.0000
     23 C          -1.0334   -3.9108   -0.9036 C.3     1  UNL1        0.0000
     24 C          -1.6769    1.3556    0.5669 C.3     1  UNL1        0.0000
     25 C           1.1275    1.0486   -1.1140 C.3     1  UNL1        0.0000
     26 C          -1.2395    0.4996    0.4330 C.3     1  UNL1        0.0000
     27 C          -2.4995   -0.2629    0.1357 C.3     1  UNL1        0.0000
     28 C           1.8897   -0.7319    1.9054 C.3     1  UNL1        0.0000
     29 C           0.8805    0.5609    2.3078 C.3     1  UNL1        0.0000
     30 C          -1.6732   -1.6133    0.4523 C.3     1  UNL1        0.0000
     31 C          -0.3661    0.7649   -1.7033 C.ar    1  UNL1        0.0000
     32 N          -1.7530    2.7943    1.1007 N.ar    1  UNL1        0.0000
     33 N           0.4443    1.9090    2.0761 N.ar    1  UNL1        0.0000
     34 C          -0.1473    0.0300    1.2914 C.ar    1  UNL1        0.0000
     35 C           0.0498    1.1839   -0.0737 C.ar    1  UNL1        0.0000
     36 H          -2.1152    0.1760    2.9018 H       1  UNL1        0.0000
     37 H          -0.2079   -3.3383    1.6942 H       1  UNL1        0.0000
     38 H          -0.1465    1.5336    3.1149 H       1  UNL1        0.0000
     39 H          -0.2188   -2.5122   -2.4187 H       1  UNL1        0.0000
     40 H          -2.5135   -0.8120    1.3950 H       1  UNL1        0.0000
     41 H           2.2205   -2.1586    1.9643 H       1  UNL1        0.0000
     42 H          -2.5520   -0.4084   -1.2725 H       1  UNL1        0.0000
     43 H          -1.2635    2.4365   -3.7955 H       1  UNL1        0.0000
     44 H           2.2285    1.7133   -0.6622 H       1  UNL1        0.0000
     45 H           2.1455   -1.5033    0.1611 H       1  UNL1        0.0000
     46 H          -2.4671   -1.4305    2.4203 H       1  UNL1        0.0000
     47 H           0.3869   -1.2181   -3.6590 H       1  UNL1        0.0000
     48 H           3.6953   -0.4399   -2.0523 H       1  UNL1        0.0000
     49 H          -0.9615    0.7992    3.2601 H       1  UNL1        0.0000
     50 H          -0.9053   -1.9477    1.4870 H       1  UNL1        0.0000
     51 H          -1.8869   -1.5824   -1.3996 H       1  UNL1        0.0000
     52 H          -1.2728    3.2805   -0.4902 H       1  UNL1        0.0000
     53 H           0.2135   -3.5451   -1.6784 H       1  UNL1        0.0000
     54 H          -1.2321    2.1507   -0.4182 H       1  UNL1        0.0000
     55 H           0.7891   -1.4665   -0.7656 H       1  UNL1        0.0000
     56 H           2.8466    1.1462    1.0297 H       1  UNL1        0.0000
     57 H           0.9726   -2.1850   -3.0286 H       1  UNL1        0.0000
     58 H          -1.7293   -1.8062   -3.1238 H       1  UNL1        0.0000
     59 H           0.9760   -0.7756    2.1727 H       1  UNL1        0.0000
     60 H          -2.5229    2.2633   -0.1095 H       1  UNL1        0.0000
     61 H           0.7779    0.9604   -3.1964 H       1  UNL1        0.0000
     62 H           1.8748    1.9403   -3.2720 H       1  UNL1        0.0000
     63 H           1.2084    3.2189   -0.1901 H       1  UNL1        0.0000
     64 H           3.2420   -1.0276   -0.1259 H       1  UNL1        0.0000
     65 H          -1.3308   -3.1534    1.8886 H       1  UNL1        0.0000
     66 H          -1.6942    1.1642    2.3822 H       1  UNL1        0.0000
     67 H           2.3335    1.9164    1.7275 H       1  UNL1        0.0000
     68 EU          1.2636    1.8390    0.3070 Eu      1  UNL1        0.0000
@<TRIPOS>BOND
     1     1     2    2
     2     2     3   am
     3     3     4    1
     4     3     5    1
     5     5     6    1
     6     6     7    1
     7     2     8    1
     8     8     9   ar
     9     9    10   ar
    10     8    11   ar
    11    11    12   ar
    12    12    13   ar
    13    10    13   ar
    14    13    14   ar
    15    14    15   ar
    16    15    16   ar
    17    16    17   ar
    18    12    17   ar
    19    17    18   ar
    20    18    19   ar
    21    19    20    1
    22    20    21   ar
    23    21    22   ar
    24    22    23    1
    25    23    24    1
    26    23    25    1
    27    23    26    1
    28    26    27    1
    29    27    28    1
    30    28    29    1
    31    28    30    1
    32    22    31   ar
    33    28    31    1
    34    31    32   ar
    35    32    33   ar
    36    20    33   ar
    37    19    34   ar
    38    34    35   ar
    39    16    35   ar
    40     4    36    1
    41     4    37    1
    42     4    38    1
    43     5    39    1
    44     5    40    1
    45     6    41    1
    46     6    42    1
    47     7    43    1
    48     7    44    1
    49     7    45    1
    50     9    46    1
    51    10    47    1
    52    14    48    1
    53    15    49    1
    54    24    50    1
    55    24    51    1
    56    24    52    1
    57    25    53    1
    58    25    54    1
    59    25    55    1
    60    26    56    1
    61    26    57    1
    62    27    58    1
    63    27    59    1
    64    29    60    1
    65    29    61    1
    66    29    62    1
    67    30    63    1
    68    30    64    1
    69    30    65    1
    70    34    66    1
    71    35    67    1
    72    68     1    1
    73    68    33    1
    74    68    18    1
    75    68    11    1
@<TRIPOS>MOLECULE
*****
 68 75 0 0 0
SMALL
GASTEIGER

@<TRIPOS>ATOM
      1 O           1.2612   -0.3804   -1.0067 O.2     1  UNL1        0.0000
      2 C          -1.1927   -0.5387   -0.6190 C.2     1  UNL1        0.0000
      3 N          -1.1525   -0.9227    2.1986 N.am    1  UNL1        0.0000
      4 C          -1.2388   -0.6610    2.1961 C.3     1  UNL1        0.0000
      5 C          -0.8803   -0.8073    2.4627 C.3     1  UNL1        0.0000
      6 C           1.4356   -2.0642    2.8409 C.3     1  UNL1        0.0000
      7 C          -1.9554   -3.1365    0.2013 C.3     1  UNL1        0.0000
      8 C          -0.2489    2.4415    0.6302 C.ar    1  UNL1        0.0000
      9 C           1.6409    0.7763    1.0230 C.ar    1  UNL1        0.0000
     10 C          -0.0795   -0.0925   -3.8951 C.ar    1  UNL1        0.0000
     11 N           0.0030    2.6803   -0.1391 N.ar    1  UNL1        0.0000
     12 C           0.7221    2.2595   -2.0048 C.ar    1  UNL1        0.0000
     13 C          -1.6570    0.7643   -2.8628 C.ar    1  UNL1        0.0000
     14 C           0.3881   -2.3908    0.1227 C.ar    1  UNL1        0.0000
     15 C           0.3762   -2.3562    0.1523 C.ar    1  UNL1        0.0000
     16 C           0.4292   -0.8528   -2.2493 C.ar    1  UNL1        0.0000
     17 C           1.6462   -0.6361   -2.2335 C.ar    1  UNL1        0.0000
     18 N           0.8225   -0.5856    0.8159 N.ar    1  UNL1        0.0000
     19 C           0.1561   -0.9806    0.9962 C.ar    1  UNL1        0.0000
     20 C          -0.0006   -1.0527    1.1204 C.ar    1  UNL1        0.0000
     21 N          -1.7878    0.6746   -0.9891 N.ar    1  UNL1        0.0000
     22 C          -0.6098    0.3678   -1.8093 C.ar    1  UNL1        0.0000
     23 C          -1.0334   -3.9108   -0.9036 C.3     1  UNL1        0.0000
     24 C          -1.6769    1.3556    0.5669 C.3     1  UNL1        0.0000
     25 C           1.1275    1.0486   -1.1140 C.3     1  UNL1        0.0000
     26 C          -1.2395    0.4996    0.4330 C.3     1  UNL1        0.0000
     27 C          -2.4995   -0.2629    0.1357 C.3     1  UNL1        0.0000
     28 C           1.8897   -0.7319    1.9054 C.3     1  UNL1        0.0000
     29 C           0.8805    0.5609    2.3078 C.3     1  UNL1        0.0000
     30 C          -1.6732   -1.6133    0.4523 C.3     1  UNL1        0.0000
     31 C          -0.3661    0.7649   -1.7033 C.ar    1  UNL1        0.0000
     32 N          -1.7530    2.7943    1.1007 N.ar    1  UNL1        0.0000
     33 N           0.4443    1.9090    2.0761 N.ar    1  UNL1        0.0000
     34 C          -0.1473    0.0300    1.2914 C.ar    1  UNL1        0.0000
     35 C           0.0498    1.1839   -0.0737 C.ar    1  UNL1        0.0000
     36 H          -2.1152    0.1760    2.9018 H       1  UNL1        0.0000
     37 H          -0.2079   -3.3383    1.6942 H       1  UNL1        0.0000
     38 H          -0.1465    1.5336    3.1149 H       1  UNL1        0.0000
     39 H          -0.2188   -2.5122   -2.4187 H       1  UNL1        0.0000
     40 H          -2.5135   -0.8120    1.3950 H       1  UNL1        0.0000
     41 H           2.2205   -2.1586    1.9643 H       1  UNL1        0.0000
     42 H          -2.5520   -0.4084   -1.2725 H       1  UNL1        0.0000
     43 H          -1.2635    2.4365   -3.7955 H       1  UNL1        0.0000
     44 H           2.2285    1.7133   -0.6622 H       1  UNL1        0.0000
     45 H           2.1455   -1.5033    0.1611 H       1  UNL1        0.0000
     46 H          -2.4671   -1.4305    2.4203 H       1  UNL1        0.0000
     47 H           0.3869   -1.2181   -3.6590 H       1  UNL1        0.0000
     48 H           3.6953   -0.4399   -2.0523 H       1  UNL1        0.0000
     49 H          -0.9615    0.7992    3.2601 H       1  UNL1        0.0000
     50 H          -0.9053   -1.9477    1.4870 H       1  UNL1        0.0000
     51 H          -1.8869   -1.5824   -1.3996 H       1  UNL1        0.0000
     52 H          -1.2728    3.2805   -0.4902 H       1  UNL1        0.0000
     53 H           0.2135   -3.5451   -1.6784 H       1  UNL1        0.0000
     54 H          -1.2321    2.1507   -0.4182 H       1  UNL1        0.0000
     55 H           0.7891   -1.4665   -0.7656 H       1  UNL1        0.0000
     56 H           2.8466    1.1462    1.0297 H       1  UNL1        0.0000
     57 H           0.9726   -2.1850   -3.0286 H       1  UNL1        0.0000
     58 H          -1.7293   -1.8062   -3.1238 H       1  UNL1        0.0000
     59 H           0.9760   -0.7756    2.1727 H       1  UNL1        0.0000
     60 H          -2.5229    2.2633   -0.1095 H       1  UNL1        0.0000
     61 H           0.7779    0.9604   -3.1964 H       1  UNL1        0.0000
     62 H           1.8748    1.9403   -3.2720 H       1  UNL1        0.0000
     63 H           1.2084    3.2189   -0.1901 H       1  UNL1        0.0000
     64 H           3.2420   -1.0276   -0.1259 H       1  UNL1        0.0000
     65 H          -1.3308   -3.1534    1.8886 H       1  UNL1        0.0000
     66 H          -1.6942    1.1642    2.3822 H       1  UNL1        0.0000
     67 H           2.3335    1.9164    1.7275 H       1  UNL1        0.0000
     68 EU          1.2636    1.8390    0.3070 Eu      1  UNL1        0.0000
@<TRIPOS>BOND
     1     1     2    2
     2     2     3   am
     3     3     4    1
     4     3     5    1
     5     5     6    1
     6     6     7    1
     7     2     8    1
     8     8     9   ar
     9     9    10   ar
    10     8    11   ar
    11    11    12   ar
    12    12    13   ar
    13    10    13   ar
    14    13    14   ar
    15    14    15   ar
    16    15    16   ar
    17    16    17   ar
    18    12    17   ar
    19    17    18   ar
    20    18    19   ar
    21    19    20    1
    22    20    21   ar
    23    21    22   ar
    24    22    23    1
    25    23    24    1
    26    23    25    1
    27    23    26    1
    28    26    27    1
    29    27    28    1
    30    28    29    1
    31    28    30    1
    32    22    31   ar
    33    28    31    1
    34    31    32   ar
    35    32    33   ar
    36    20    33   ar
    37    19    34   ar
    38    34    35   ar
    39    16    35   ar
    40     4    36    1
    41     4    37    1
    42     4    38    1
    43     5    39    1
    44     5    40    1
    45     6    41    1
    46     6    42    1
    47     7    43    1
    48     7    44    1
    49     7    45    1
    50     9    46    1
    51    10    47    1
    52    14    48    1
    53    15    49    1
    54    24    50    1
    55    24    51    1
    56    24    52    1
    57    25    53    1
    58    25    54    1
    59    25    55    1
    60    26    56    1
    61    26    57    1
    62    27    58    1
    63    27    59    1
    64    29    60    1
    65    29    61    1
    66    29    62    1
    67    30    63    1
    68    30    64    1
    69    30    65    1
    70    34    66    1
    71    35    67    1
    72    68     1    1
    73    68    33    1
    74    68    18    1
    75    68    11    1
@<TRIPOS>MOLECULE
*****
 68 75 0 0 0
SMALL
GASTEIGER

@<TRIPOS>ATOM
      1 O           1.2612   -0.3804   -1.0067 O.2     1  UNL1        0.0000
      2 C          -1.1927   -0.5387   -0.6190 C.2     1  UNL1        0.0000
      3 N          -1.1525   -0.9227    2.1986 N.am    1  UNL1        0.0000
      4 C          -1.2388   -0.6610    2.1961 C.3     1  UNL1        0.0000
      5 C          -0.8803   -0.8073    2.4627 C.3     1  UNL1        0.0000
      6 C           1.4356   -2.0642    2.8409 C.3     1  UNL1        0.0000
      7 C          -1.9554   -3.1365    0.2013 C.3     1  UNL1        0.0000
      8 C          -0.2489    2.4415    0.6302 C.ar    1  UNL1        0.0000
      9 C           1.6409    0.7763    1.0230 C.ar    1  UNL1        0.0000
     10 C          -0.0795   -0.0925   -3.8951 C.ar    1  UNL1        0.0000
     11 N           0.0030    2.6803   -0.1391 N.ar    1  UNL1        0.0000
     12 C           0.7221    2.2595   -2.0048 C.ar    1  UNL1        0.0000
     13 C          -1.6570    0.7643   -2.8628 C.ar    1  UNL1        0.0000
     14 C           0.3881   -2.3908    0.1227 C.ar    1  UNL1        0.0000
     15 C           0.3762   -2.3562    0.1523 C.ar    1  UNL1        0.0000
     16 C           0.4292   -0.8528   -2.2493 C.ar    1  UNL1        0.0000
     17 C           1.6462   -0.6361   -2.2335 C.ar    1  UNL1        0.0000
     18 N           0.8225   -0.5856    0.8159 N.ar    1  UNL1        0.0000
     19 C           0.1561   -0.9806    0.9962 C.ar    1  UNL1        0.0000
     20 C          -0.0006   -1.0527    1.1204 C.ar    1  UNL1        0.0000
     21 N          -1.7878    0.6746   -0.9891 N.ar    1  UNL1        0.0000
     22 C          -0.6098    0.3678   -1.8093 C.ar    1  UNL1        0.0000
     23 C          -1.0334   -3.9108   -0.9036 C.3     1  UNL1        0.0000
     24 C          -1.6769    1.3556    0.5669 C.3     1  UNL1        0.0000
     25 C           1.1275    1.0486   -1.1140 C.3     1  UNL1        0.0000
     26 C          -1.2395    0.4996    0.4330 C.3     1  UNL1        0.0000
     27 C          -2.4995   -0.2629    0.1357 C.3     1  UNL1        0.0000
     28 C           1.8897   -0.7319    1.9054 C.3     1  UNL1        0.0000
     29 C           0.8805    0.5609    2.3078 C.3     1  UNL1        0.0000
     30 C          -1.6732   -1.6133    0.4523 C.3     1  UNL1        0.0000
     31 C          -0.3661    0.7649   -1.7033 C.ar    1  UNL1        0.0000
     32 N          -1.7530    2.7943    1.1007 N.ar    1  UNL1        0.0000
     33 N           0.4443    1.9090    2.0761 N.ar    1  UNL1        0.0000
     34 C          -0.1473    0.0300    1.2914 C.ar    1  UNL1        0.0000
     35 C           0.0498    1.1839   -0.0737 C.ar    1  UNL1        0.0000
     36 H          -2.1152    0.1760    2.9018 H       1  UNL1        0.0000
     37 H          -0.2079   -3.3383    1.6942 H       1  UNL1        0.0000
     38 H          -0.1465    1.5336    3.1149 H       1  UNL1        0.0000
     39 H          -0.2188   -2.5122   -2.4187 H       1  UNL1        0.0000
     40 H          -2.5135   -0.8120    1.3950 H       1  UNL1        0.0000
     41 H           2.2205   -2.1586    1.9643 H       1  UNL1        0.0000
     42 H          -2.5520   -0.4084   -1.2725 H       1  UNL1        0.0000
     43 H          -1.2635    2.4365   -3.7955 H       1  UNL1        0.0000
     44 H           2.2285    1.7133   -0.6622 H       1  UNL1        0.0000
     45 H           2.1455   -1.5033    0.1611 H       1  UNL1        0.0000
     46 H          -2.4671   -1.4305    2.4203 H       1  UNL1        0.0000
     47 H           0.3869   -1.2181   -3.6590 H       1  UNL1        0.0000
     48 H           3.6953   -0.4399   -2.0523 H       1  UNL1        0.0000
     49 H          -0.9615    0.7992    3.2601 H       1  UNL1        0.0000
     50 H          -0.9053   -1.9477    1.4870 H       1  UNL1        0.0000
     51 H          -1.8869   -1.5824   -1.3996 H       1  UNL1        0.0000
     52 H          -1.2728    3.2805   -0.4902 H       1  UNL1        0.0000
     53 H           0.2135   -3.5451   -1.6784 H       1  UNL1        0.0000
     54 H          -1.2321    2.1507   -0.4182 H       1  UNL1        0.0000
     55 H           0.7891   -1.4665   -0.7656 H       1  UNL1        0.0000
     56 H           2.8466    1.1462    1.0297 H       1  UNL1        0.0000
     57 H           0.9726   -2.1850   -3.0286 H       1  UNL1        0.0000
     58 H          -1.7293   -1.8062   -3.1238 H       1  UNL1        0.0000
     59 H           0.9760   -0.7756    2.1727 H       1  UNL1        0.0000
     60 H          -2.5229    2.2633   -0.1095 H       1  UNL1        0.0000
     61 H           0.7779    0.9604   -3.1964 H       1  UNL1        0.0000
     62 H           1.8748    1.9403   -3.2720 H       1  UNL1        0.0000
     63 H           1.2084    3.2189   -0.1901 H       1  UNL1        0.0000
     64 H           3.2420   -1.0276   -0.1259 H       1  UNL1        0.0000
     65 H          -1.3308   -3.1534    1.8886 H       1  UNL1        0.0000
     66 H          -1.6942    1.1642    2.3822 H       1  UNL1        0.0000
     67 H           2.3335    1.9164    1.7275 H       1  UNL1        0.0000
     68 EU          1.2636    1.8390    0.3070 Eu      1  UNL1        0.0000
@<TRIPOS>BOND
     1     1     2    2
     2     2     3   am
     3     3     4    1
     4     3     5    1
     5     5     6    1
     6     6     7    1
     7     2     8    1
     8     8     9   ar
     9     9    10   ar
    10     8    11   ar
    11    11    12   ar
    12    12    13   ar
    13    10    13   ar
    14    13    14   ar
    15    14    15   ar
    16    15    16   ar
    17    16    17   ar
    18    12    17   ar
    19    17    18   ar
    20    18    19   ar
    21    19    20    1
    22    20    21   ar
    23    21    22   ar
    24    22    23    1
    25    23    24    1
    26    23    25    1
    27    23    26    1
    28    26    27    1
    29    27    28    1
    30    28    29    1
    31    28    30    1
    32    22    31   ar
    33    28    31    1
    34    31    32   ar
    35    32    33   ar
    36    20    33   ar
    37    19    34   ar
    38    34    35   ar
    39    16    35   ar
    40     4    36    1
    41     4    37    1
    42     4    38    1
    43     5    39    1
    44     5    40    1
    45     6    41    1
    46     6    42    1
    47     7    43    1
    48     7    44    1
    49     7    45    1
    50     9    46    1
    51    10    47    1
    52    14    48    1
    53    15    49    1
    54    24    50    1
    55    24    51    1
    56    24    52    1
    57    25    53    1
    58    25    54    1
    59    25    55    1
    60    26    56    1
    61    26    57    1
    62    27    58    1
    63    27    59    1
    64    29    60    1
    65    29    61    1
    66    29    62    1
    67    30    63    1
    68    30    64    1
    69    30    65    1
    70    34    66    1
    71    35    67    1
    72    68     1    1
    73    68    33    1
    74    68    18    1
    75    68    11    1
@<TRIPOS>MOLECULE
*****
 68 75 0 0 0
SMALL
GASTEIGER

@<TRIPOS>ATOM
      1 O           1.2612   -0.3804   -1.0067 O.2     1  UNL1        0.0000
      2 C          -1.1927   -0.5387   -0.6190 C.2     1  UNL1        0.0000
      3 N          -1.1525   -0.9227    2.1986 N.am    1  UNL1        0.0000
      4 C          -1.2388   -0.6610    2.1961 C.3     1  UNL1        0.0000
      5 C          -0.8803   -0.8073    2.4627 C.3     1  UNL1        0.0000
      6 C           1.4356   -2.0642    2.8409 C.3     1  UNL1        0.0000
      7 C          -1.9554   -3.1365    0.2013 C.3     1  UNL1        0.0000
      8 C          -0.2489    2.4415    0.6302 C.ar    1  UNL1        0.0000
      9 C           1.6409    0.7763    1.0230 C.ar    1  UNL1        0.0000
     10 C          -0.0795   -0.0925   -3.8951 C.ar    1  UNL1        0.0000
     11 N           0.0030    2.6803   -0.1391 N.ar    1  UNL1        0.0000
     12 C           0.7221    2.2595   -2.0048 C.ar    1  UNL1        0.0000
     13 C          -1.6570    0.7643   -2.8628 C.ar    1  UNL1        0.0000
     14 C           0.3881   -2.3908    0.1227 C.ar    1  UNL1        0.0000
     15 C           0.3762   -2.3562    0.1523 C.ar    1  UNL1        0.0000
     16 C           0.4292   -0.8528   -2.2493 C.ar    1  UNL1        0.0000
     17 C           1.6462   -0.6361   -2.2335 C.ar    1  UNL1        0.0000
     18 N           0.8225   -0.5856    0.8159 N.ar    1  UNL1        0.0000
     19 C           0.1561   -0.9806    0.9962 C.ar    1  UNL1        0.0000
     20 C          -0.0006   -1.0527    1.1204 C.ar    1  UNL1        0.0000
     21 N          -1.7878    0.6746   -0.9891 N.ar    1  UNL1        0.0000
     22 C          -0.6098    0.3678   -1.8093 C.ar    1  UNL1        0.0000
     23 C          -1.0334   -3.9108   -0.9036 C.3     1  UNL1        0.0000
     24 C          -1.6769    1.3556    0.5669 C.3     1  UNL1        0.0000
     25 C           1.1275    1.0486   -1.1140 C.3     1  UNL1        0.0000
     26 C          -1.2395    0.4996    0.4330 C.3     1  UNL1        0.0000
     27 C          -2.4995   -0.2629    0.1357 C.3     1  UNL1        0.0000
     28 C           1.8897   -0.7319    1.9054 C.3     1  UNL1        0.0000
     29 C           0.8805    0.5609    2.3078 C.3     1  UNL1        0.0000
     30 C          -1.6732   -1.6133    0.4523 C.3     1  UNL1        0.0000
     31 C          -0.3661    0.7649   -1.7033 C.ar    1  UNL1        0.0000
     32 N          -1.7530    2.7943    1.1007 N.ar    1  UNL1        0.0000
     33 N           0.4443    1.9090    2.0761 N.ar    1  UNL1        0.0000
     34 C          -0.1473    0.0300    1.2914 C.ar    1  UNL1        0.0000
     35 C           0.0498    1.1839   -0.0737 C.ar    1  UNL1        0.0000
     36 H          -2.1152    0.1760    2.9018 H       1  UNL1        0.0000
     37 H          -0.2079   -3.3383    1.6942 H       1  UNL1        0.0000
     38 H          -0.1465    1.5336    3.1149 H       1  UNL1        0.0000
     39 H          -0.2188   -2.5122   -2.4187 H       1  UNL1        0.0000
     40 H          -2.5135   -0.8120    1.3950 H       1  UNL1        0.0000
     41 H           2.2205   -2.1586    1.9643 H       1  UNL1        0.0000
     42 H          -2.5520   -0.4084   -1.2725 H       1  UNL1        0.0000
     43 H          -1.2635    2.4365   -3.7955 H       1  UNL1        0.0000
     44 H           2.2285    1.7133   -0.6622 H       1  UNL1        0.0000
     45 H           2.1455   -1.5033    0.1611 H       1  UNL1        0.0000
     46 H          -2.4671   -1.4305    2.4203 H       1  UNL1        0.0000
     47 H           0.3869   -1.2181   -3.6590 H       1  UNL1        0.0000
     48 H           3.6953   -0.4399   -2.0523 H       1  UNL1        0.0000
     49 H          -0.9615    0.7992    3.2601 H       1  UNL1        0.0000
     50 H          -0.9053   -1.9477    1.4870 H       1  UNL1        0.0000
     51 H          -1.8869   -1.5824   -1.3996 H       1  UNL1        0.0000
     52 H          -1.2728    3.2805   -0.4902 H       1  UNL1        0.0000
     53 H           0.2135   -3.5451   -1.6784 H       1  UNL1        0.0000
     54 H          -1.2321    2.1507   -0.4182 H       1  UNL1        0.0000
     55 H           0.7891   -1.4665   -0.7656 H       1  UNL1        0.0000
     56 H           2.8466    1.1462    1.0297 H       1  UNL1        0.0000
     57 H           0.9726   -2.1850   -3.0286 H       1  UNL1        0.0000
     58 H          -1.7293   -1.8062   -3.1238 H       1  UNL1        0.0000
     59 H           0.9760   -0.7756    2.1727 H       1  UNL1        0.0000
     60 H          -2.5229    2.2633   -0.1095 H       1  UNL1        0.0000
     61 H           0.7779    0.9604   -3.1964 H       1  UNL1        0.0000
     62 H           1.8748    1.9403   -3.2720 H       1  UNL1        0.0000
     63 H           1.2084    3.2189   -0.1901 H       1  UNL1        0.0000
     64 H           3.2420   -1.0276   -0.1259 H       1  UNL1        0.0000
     65 H          -1.3308   -3.1534    1.8886 H       1  UNL1        0.0000
     66 H          -1.6942    1.1642    2.3822 H       1  UNL1        0.0000
     67 H           2.3335    1.9164    1.7275 H       1  UNL1        0.0000
     68 EU          1.2636    1.8390    0.3070 Eu      1  UNL1        0.0000
@<TRIPOS>BOND
     1     1     2    2
     2     2     3   am
     3     3     4    1
     4     3     5    1
     5     5     6    1
     6     6     7    1
     7     2     8    1
     8     8     9   ar
     9     9    10   ar
    10     8    11   ar
    11    11    12   ar
    12    12    13   ar
    13    10    13   ar
    14    13    14   ar
    15    14    15   ar
    16    15    16   ar
    17    16    17   ar
    18    12    17   ar
    19    17    18   ar
    20    18    19   ar
    21    19    20    1
    22    20    21   ar
    23    21    22   ar
    24    22    23    1
    25    23    24    1
    26    23    25    1
    27    23    26    1
    28    26    27    1
    29    27    28    1
    30    28    29    1
    31    28    30    1
    32    22    31   ar
    33    28    31    1
    34    31    32   ar
    35    32    33   ar
    36    20    33   ar
    37    19    34   ar
    38    34    35   ar
    39    16    35   ar
    40     4    36    1
    41     4    37    1
    42     4    38    1
    43     5    39    1
    44     5    40    1
    45     6    41    1
    46     6    42    1
    47     7    43    1
    48     7    44    1
    49     7    45    1
    50     9    46    1
    51    10    47    1
    52    14    48    1
    53    15    49    1
    54    24    50    1
    55    24    51    1
    56    24    52    1
    57    25    53    1
    58    25    54    1
    59    25    55    1
    60    26    56    1
    61    26    57    1
    62    27    58    1
    63    27    59    1
    64    29    60    1
    65    29    61    1
    66    29    62    1
    67    30    63    1
    68    30    64    1
    69    30    65    1
    70    34    66    1
    71    35    67    1
    72    68     1    1
    73    68    33    1
    74    68    18    1
    75    68    11    1
@<TRIPOS>MOLECULE
*****
 68 75 0 0 0
SMALL
GASTEIGER

@<TRIPOS>ATOM
      1 O           1.2612   -0.3804   -1.0067 O.2     1  UNL1        0.0000
      2 C          -1.1927   -0.5387   -0.6190 C.2     1  UNL1        0.0000
      3 N          -1.1525   -0.9227    2.1986 N.am    1  UNL1        0.0000
      4 C          -1.2388   -0.6610    2.1961 C.3     1  UNL1        0.0000
      5 C          -0.8803   -0.8073    2.4627 C.3     1  UNL1        0.0000
      6 C           1.4356   -2.0642    2.8409 C.3     1  UNL1        0.0000
      7 C          -1.9554   -3.1365    0.2013 C.3     1  UNL1        0.0000
      8 C          -0.2489    2.4415    0.6302 C.ar    1  UNL1        0.0000
      9 C           1.6409    0.7763    1.0230 C.ar    1  UNL1        0.0000
     10 C          -0.0795   -0.0925   -3.8951 C.ar    1  UNL1        0.0000
     11 N           0.0030    2.6803   -0.1391 N.ar    1  UNL1        0.0000
     12 C           0.7221    2.2595   -2.0048 C.ar    1  UNL1        0.0000
     13 C          -1.6570    0.7643   -2.8628 C.ar    1  UNL1        0.0000
     14 C           0.3881   -2.3908    0.1227 C.ar    1  UNL1        0.0000
     15 C           0.3762   -2.3562    0.1523 C.ar    1  UNL1        0.0000
     16 C           0.4292   -0.8528   -2.2493 C.ar    1  UNL1        0.0000
     17 C           1.6462   -0.6361   -2.2335 C.ar    1  UNL1        0.0000
     18 N           0.8225   -0.5856    0.8159 N.ar    1  UNL1        0.0000
     19 C           0.1561   -0.9806    0.9962 C.ar    1  UNL1        0.0000
     20 C          -0.0006   -1.0527    1.1204 C.ar    1  UNL1        0.0000
     21 N          -1.7878    0.6746   -0.9891 N.ar    1  UNL1        0.0000
     22 C          -0.6098    0.3678   -1.8093 C.ar    1  UNL1        0.0000
     23 C          -1.0334   -3.9108   -0.9036 C.3     1  UNL1        0.0000
     24 C          -1.6769    1.3556    0.5669 C.3     1  UNL1        0.0000
     25 C           1.1275    1.0486   -1.1140 C.3     1  UNL1        0.0000
     26 C          -1.2395    0.4996    0.4330 C.3     1  UNL1        0.0000
     27 C          -2.4995   -0.2629    0.1357 C.3     1  UNL1        0.0000
     28 C           1.8897   -0.7319    1.9054 C.3     1  UNL1        0.0000
     29 C           0.8805    0.5609    2.3078 C.3     1  UNL1        0.0000
     30 C          -1.6732   -1.6133    0.4523 C.3     1  UNL1        0.0000
     31 C          -0.3661    0.7649   -1.7033 C.ar    1  UNL1        0.0000
     32 N          -1.7530    2.7943    1.1007 N.ar    1  UNL1        0.0000
     33 N           0.4443    1.9090    2.0761 N.ar    1  UNL1        0.0000
     34 C          -0.1473    0.0300    1.2914 C.ar    1  UNL1        0.0000
     35 C           0.0498    1.1839   -0.0737 C.ar    1  UNL1        0.0000
     36 H          -2.1152    0.1760    2.9018 H       1  UNL1        0.0000
     37 H          -0.2079   -3.3383    1.6942 H       1  UNL1        0.0000
     38 H          -0.1465    1.5336    3.1149 H       1  UNL1        0.0000
     39 H          -0.2188   -2.5122   -2.4187 H       1  UNL1        0.0000
     40 H          -2.5135   -0.8120    1.3950 H       1  UNL1        0.0000
     41 H           2.2205   -2.1586    1.9643 H       1  UNL1        0.0000
     42 H          -2.5520   -0.4084   -1.2725 H       1  UNL1        0.0000
     43 H          -1.2635    2.4365   -3.7955 H       1  UNL1        0.0000
     44 H           2.2285    1.7133   -0.6622 H       1  UNL1        0.0000
     45 H           2.1455   -1.5033    0.1611 H       1  UNL1        0.0000
     46 H          -2.4671   -1.4305    2.4203 H       1  UNL1        0.0000
     47 H           0.3869   -1.2181   -3.6590 H       1  UNL1        0.0000
     48 H           3.6953   -0.4399   -2.0523 H       1  UNL1        0.0000
     49 H          -0.9615    0.7992    3.2601 H       1  UNL1        0.0000
     50 H          -0.9053   -1.9477    1.4870 H       1  UNL1        0.0000
     51 H          -1.8869   -1.5824   -1.3996 H       1  UNL1        0.0000
     52 H          -1.2728    3.2805   -0.4902 H       1  UNL1        0.0000
     53 H           0.2135   -3.5451   -1.6784 H       1  UNL1        0.0000
     54 H          -1.2321    2.1507   -0.4182 H       1  UNL1        0.0000
     55 H           0.7891   -1.4665   -0.7656 H       1  UNL1        0.0000
     56 H           2.8466    1.1462    1.0297 H       1  UNL1        0.0000
     57 H           0.9726   -2.1850   -3.0286 H       1  UNL1        0.0000
     58 H          -1.7293   -1.8062   -3.1238 H       1  UNL1        0.0000
     59 H           0.9760   -0.7756    2.1727 H       1  UNL1        0.0000
     60 H          -2.5229    2.2633   -0.1095 H       1  UNL1        0.0000
     61 H           0.7779    0.9604   -3.1964 H       1  UNL1        0.0000
     62 H           1.8748    1.9403   -3.2720 H       1  UNL1        0.0000
     63 H           1.2084    3.2189   -0.1901 H       1  UNL1        0.0000
     64 H           3.2420   -1.0276   -0.1259 H       1  UNL1        0.0000
     65 H          -1.3308   -3.1534    1.8886 H       1  UNL1        0.0000
     66 H          -1.6942    1.1642    2.3822 H       1  UNL1        0.0000
     67 H           2.3335    1.9164    1.7275 H       1  UNL1        0.0000
     68 EU          1.2636    1.8390    0.3070 Eu      1  UNL1        0.0000
@<TRIPOS>BOND
     1     1     2    2
     2     2     3   am
     3     3     4    1
     4     3     5    1
     5     5     6    1
     6     6     7    1
     7     2     8    1
     8     8     9   ar
     9     9    10   ar
    10     8    11   ar
    11    11    12   ar
    12    12    13   ar
    13    10    13   ar
    14    13    14   ar
    15    14    15   ar
    16    15    16   ar
    17    16    17   ar
    18    12    17   ar
    19    17    18   ar
    20    18    19   ar
    21    19    20    1
    22    20    21   ar
    23    21    22   ar
    24    22    23    1
    25    23    24    1
    26    23    25    1
    27    23    26    1
    28    26    27    1
    29    27    28    1
    30    28    29    1
    31    28    30    1
    32    22    31   ar
    33    28    31    1
    34    31    32   ar
    35    32    33   ar
    36    20    33   ar
    37    19    34   ar
    38    34    35   ar
    39    16    35   ar
    40     4    36    1
    41     4    37    1
    42     4    38    1
    43     5    39    1
    44     5    40    1
    45     6    41    1
    46     6    42    1
    47     7    43    1
    48     7    44    1
    49     7    45    1
    50     9    46    1
    51    10    47    1
    52    14    48    1
    53    15    49    1
    54    24    50    1
    55    24    51    1
    56    24    52    1
    57    25    53    1
    58    25    54    1
    59    25    55    1
    60    26    56    1
    61    26    57    1
    62    27    58    1
    63    27    59    1
    64    29    60    1
    65    29    61    1
    66    29    62    1
    67    30    63    1
    68    30    64    1
    69    30    65    1
    70    34    66    1
    71    35    67    1
    72    68     1    1
    73    68    33    1
    74    68    18    1
    75    68    11    1
@<TRIPOS>MOLECULE
*****
 68 75 0 0 0
SMALL
GASTEIGER

@<TRIPOS>ATOM
      1 O           1.2612   -0.3804   -1.0067 O.2     1  UNL1        0.0000
      2 C          -1.1927   -0.5387   -0.6190 C.2     1  UNL1        0.0000
      3 N          -1.1525   -0.9227    2.1986 N.am    1  UNL1        0.0000
      4 C          -1.2388   -0.6610    2.1961 C.3     1  UNL1        0.0000
      5 C          -0.8803   -0.8073    2.4627 C.3     1  UNL1        0.0000
      6 C           1.4356   -2.0642    2.8409 C.3     1  UNL1        0.0000
      7 C          -1.9554   -3.1365    0.2013 C.3     1  UNL1        0.0000
      8 C          -0.2489    2.4415    0.6302 C.ar    1  UNL1        0.0000
      9 C           1.6409    0.7763    1.0230 C.ar    1  UNL1        0.0000
     10 C          -0.0795   -0.0925   -3.8951 C.ar    1  UNL1        0.0000
     11 N           0.0030    2.6803   -0.1391 N.ar    1  UNL1        0.0000
     12 C           0.7221    2.2595   -2.0048 C.ar    1  UNL1        0.0000
     13 C          -1.6570    0.7643   -2.8628 C.ar    1  UNL1        0.0000
     14 C           0.3881   -2.3908    0.1227 C.ar    1  UNL1        0.0000
     15 C           0.3762   -2.3562    0.1523 C.ar    1  UNL1        0.0000
     16 C           0.4292   -0.8528   -2.2493 C.ar    1  UNL1        0.0000
     17 C           1.6462   -0.6361   -2.2335 C.ar    1  UNL1        0.0000
     18 N           0.8225   -0.5856    0.8159 N.ar    1  UNL1        0.0000
     19 C           0.1561   -0.9806    0.9962 C.ar    1  UNL1        0.0000
     20 C          -0.0006   -1.0527    1.1204 C.ar    1  UNL1        0.0000
     21 N          -1.7878    0.6746   -0.9891 N.ar    1  UNL1        0.0000
     22 C          -0.6098    0.3678   -1.8093 C.ar    1  UNL1        0.0000
     23 C          -1.0334   -3.9108   -0.9036 C.3     1  UNL1        0.0000
     24 C          -1.6769    1.3556    0.5669 C.3     1  UNL1        0.0000
     25 C           1.1275    1.0486   -1.1140 C.3     1  UNL1        0.0000
     26 C          -1.2395    0.4996    0.4330 C.3     1  UNL1        0.0000
     27 C          -2.4995   -0.2629    0.1357 C.3     1  UNL1        0.0000
     28 C           1.8897   -0.7319    1.9054 C.3     1  UNL1        0.0000
     29 C           0.8805    0.5609    2.3078 C.3     1  UNL1        0.0000
     30 C          -1.6732   -1.6133    0.4523 C.3     1  UNL1        0.0000
     31 C          -0.3661    0.7649   -1.7033 C.ar    1  UNL1        0.0000
     32 N          -1.7530    2.7943    1.1007 N.ar    1  UNL1        0.0000
     33 N           0.4443    1.9090    2.0761 N.ar    1  UNL1        0.0000
     34 C          -0.1473    0.0300    1.2914 C.ar    1  UNL1        0.0000
     35 C           0.0498    1.1839   -0.0737 C.ar    1  UNL1        0.0000
     36 H          -2.1152    0.1760    2.9018 H       1  UNL1        0.0000
     37 H          -0.2079   -3.3383    1.6942 H       1  UNL1        0.0000
     38 H          -0.1465    1.5336    3.1149 H       1  UNL1        0.0000
     39 H          -0.2188   -2.5122   -2.4187 H       1  UNL1        0.0000
     40 H          -2.5135   -0.8120    1.3950 H       1  UNL1        0.0000
     41 H           2.2205   -2.1586    1.9643 H       1  UNL1        0.0000
     42 H          -2.5520   -0.4084   -1.2725 H       1  UNL1        0.0000
     43 H          -1.2635    2.4365   -3.7955 H       1  UNL1        0.0000
     44 H           2.2285    1.7133   -0.6622 H       1  UNL1        0.0000
     45 H           2.1455   -1.5033    0.1611 H       1  UNL1        0.0000
     46 H          -2.4671   -1.4305    2.4203 H       1  UNL1        0.0000
     47 H           0.3869   -1.2181   -3.6590 H       1  UNL1        0.0000
     48 H           3.6953   -0.4399   -2.0523 H       1  UNL1        0.0000
     49 H          -0.9615    0.7992    3.2601 H       1  UNL1        0.0000
     50 H          -0.9053   -1.9477    1.4870 H       1  UNL1        0.0000
     51 H          -1.8869   -1.5824   -1.3996 H       1  UNL1        0.0000
     52 H          -1.2728    3.2805   -0.4902 H       1  UNL1        0.0000
     53 H           0.2135   -3.5451   -1.6784 H       1  UNL1        0.0000
     54 H          -1.2321    2.1507   -0.4182 H       1  UNL1        0.0000
     55 H           0.7891   -1.4665   -0.7656 H       1  UNL1        0.0000
     56 H           2.8466    1.1462    1.0297 H       1  UNL1        0.0000
     57 H           0.9726   -2.1850   -3.0286 H       1  UNL1        0.0000
     58 H          -1.7293   -1.8062   -3.1238 H       1  UNL1        0.0000
     59 H           0.9760   -0.7756    2.1727 H       1  UNL1        0.0000
     60 H          -2.5229    2.2633   -0.1095 H       1  UNL1        0.0000
     61 H           0.7779    0.9604   -3.1964 H       1  UNL1        0.0000
     62 H           1.8748    1.9403   -3.2720 H       1  UNL1        0.0000
     63 H           1.2084    3.2189   -0.1901 H       1  UNL1        0.0000
     64 H           3.2420   -1.0276   -0.1259 H       1  UNL1        0.0000
     65 H          -1.3308   -3.1534    1.8886 H       1  UNL1        0.0000
     66 H          -1.6942    1.1642    2.3822 H       1  UNL1        0.0000
     67 H           2.3335    1.9164    1.7275 H       1  UNL1        0.0000
     68 EU          1.2636    1.8390    0.3070 Eu      1  UNL1        0.0000
@<TRIPOS>BOND
     1     1     2    2
     2     2     3   am
     3     3     4    1
     4     3     5    1
     5     5     6    1
     6     6     7    1
     7     2     8    1
     8     8     9   ar
     9     9    10   ar
    10     8    11   ar
    11    11    12   ar
    12    12    13   ar
    13    10    13   ar
    14    13    14   ar
    15    14    15   ar
    16    15    16   ar
    17    16    17   ar
    18    12    17   ar
    19    17    18   ar
    20    18    19   ar
    21    19    20    1
    22    20    21   ar
    23    21    22   ar
    24    22    23    1
    25    23    24    1
    26    23    25    1
    27    23    26    1
    28    26    27    1
    29    27    28    1
    30    28    29    1
    31    28    30    1
    32    22    31   ar
    33    28    31    1
    34    31    32   ar
    35    32    33   ar
    36    20    33   ar
    37    19    34   ar
    38    34    35   ar
    39    16    35   ar
    40     4    36    1
    41     4    37    1
    42     4    38    1
    43     5    39    1
    44     5    40    1
    45     6    41    1
    46     6    42    1
    47     7    43    1
    48     7    44    1
    49     7    45    1
    50     9    46    1
    51    10    47    1
    52    14    48    1
    53    15    49    1
    54    24    50    1
    55    24    51    1
    56    24    52    1
    57    25    53    1
    58    25    54    1
    59    25    55    1
    60    26    56    1
    61    26    57    1
    62    27    58    1
    63    27    59    1
    64    29    60    1
    65    29    61    1
    66    29    62    1
    67    30    63    1
    68    30    64    1
    69    30    65    1
    70    34    66    1
    71    35    67    1
    72    68     1    1
    73    68    33    1
    74    68    18    1
    75    68    11    1
@<TRIPOS>MOLECULE
*****
 68 75 0 0 0
SMALL
GASTEIGER

@<TRIPOS>ATOM
      1 O           1.2612   -0.3804   -1.0067 O.2     1  UNL1        0.0000
      2 C          -1.1927   -0.5387   -0.6190 C.2     1  UNL1        0.0000
      3 N          -1.1525   -0.9227    2.1986 N.am    1  UNL1        0.0000
      4 C          -1.2388   -0.6610    2.1961 C.3     1  UNL1        0.0000
      5 C          -0.8803   -0.8073    2.4627 C.3     1  UNL1        0.0000
      6 C           1.4356   -2.0642    2.8409 C.3     1  UNL1        0.0000
      7 C          -1.9554   -3.1365    0.2013 C.3     1  UNL1        0.0000
      8 C          -0.2489    2.4415    0.6302 C.ar    1  UNL1        0.0000
      9 C           1.6409    0.7763    1.0230 C.ar    1  UNL1        0.0000
     10 C          -0.0795   -0.0925   -3.8951 C.ar    1  UNL1        0.0000
     11 N           0.0030    2.6803   -0.1391 N.ar    1  UNL1        0.0000
     12 C           0.7221    2.2595   -2.0048 C.ar    1  UNL1        0.0000
     13 C          -1.6570    0.7643   -2.8628 C.ar    1  UNL1        0.0000
     14 C           0.3881   -2.3908    0.1227 C.ar    1  UNL1        0.0000
     15 C           0.3762   -2.3562    0.1523 C.ar    1  UNL1        0.0000
     16 C           0.4292   -0.8528   -2.2493 C.ar    1  UNL1        0.0000
     17 C           1.6462   -0.6361   -2.2335 C.ar    1  UNL1        0.0000
     18 N           0.8225   -0.5856    0.8159 N.ar    1  UNL1        0.0000
     19 C           0.1561   -0.9806    0.9962 C.ar    1  UNL1        0.0000
     20 C          -0.0006   -1.0527    1.1204 C.ar    1  UNL1        0.0000
     21 N          -1.7878    0.6746   -0.9891 N.ar    1  UNL1        0.0000
     22 C          -0.6098    0.3678   -1.8093 C.ar    1  UNL1        0.0000
     23 C          -1.0334   -3.9108   -0.9036 C.3     1  UNL1        0.0000
     24 C          -1.6769    1.3556    0.5669 C.3     1  UNL1        0.0000
     25 C           1.1275    1.0486   -1.1140 C.3     1  UNL1        0.0000
     26 C          -1.2395    0.4996    0.4330 C.3     1  UNL1        0.0000
     27 C          -2.4995   -0.2629    0.1357 C.3     1  UNL1        0.0000
     28 C           1.8897   -0.7319    1.9054 C.3     1  UNL1        0.0000
     29 C           0.8805    0.5609    2.3078 C.3     1  UNL1        0.0000
     30 C          -1.6732   -1.6133    0.4523 C.3     1  UNL1        0.0000
     31 C          -0.3661    0.7649   -1.7033 C.ar    1  UNL1        0.0000
     32 N          -1.7530    2.7943    1.1007 N.ar    1  UNL1        0.0000
     33 N           0.4443    1.9090    2.0761 N.ar    1  UNL1        0.0000
     34 C          -0.1473    0.0300    1.2914 C.ar    1  UNL1        0.0000
     35 C           0.0498    1.1839   -0.0737 C.ar    1  UNL1        0.0000
     36 H          -2.1152    0.1760    2.9018 H       1  UNL1        0.0000
     37 H          -0.2079   -3.3383    1.6942 H       1  UNL1        0.0000
     38 H          -0.1465    1.5336    3.1149 H       1  UNL1        0.0000
     39 H          -0.2188   -2.5122   -2.4187 H       1  UNL1        0.0000
     40 H          -2.5135   -0.8120    1.3950 H       1  UNL1        0.0000
     41 H           2.2205   -2.1586    1.9643 H       1  UNL1        0.0000
     42 H          -2.5520   -0.4084   -1.2725 H       1  UNL1        0.0000
     43 H          -1.2635    2.4365   -3.7955 H       1  UNL1        0.0000
     44 H           2.2285    1.7133   -0.6622 H       1  UNL1        0.0000
     45 H           2.1455   -1.5033    0.1611 H       1  UNL1        0.0000
     46 H          -2.4671   -1.4305    2.4203 H       1  UNL1        0.0000
     47 H           0.3869   -1.2181   -3.6590 H       1  UNL1        0.0000
     48 H           3.6953   -0.4399   -2.0523 H       1  UNL1        0.0000
     49 H          -0.9615    0.7992    3.2601 H       1  UNL1        0.0000
     50 H          -0.9053   -1.9477    1.4870 H       1  UNL1        0.0000
     51 H          -1.8869   -1.5824   -1.3996 H       1  UNL1        0.0000
     52 H          -1.2728    3.2805   -0.4902 H       1  UNL1        0.0000
     53 H           0.2135   -3.5451   -1.6784 H       1  UNL1        0.0000
     54 H          -1.2321    2.1507   -0.4182 H       1  UNL1        0.0000
     55 H           0.7891   -1.4665   -0.7656 H       1  UNL1        0.0000
     56 H           2.8466    1.1462    1.0297 H       1  UNL1        0.0000
     57 H           0.9726   -2.1850   -3.0286 H       1  UNL1        0.0000
     58 H          -1.7293   -1.8062   -3.1238 H       1  UNL1        0.0000
     59 H           0.9760   -0.7756    2.1727 H       1  UNL1        0.0000
     60 H          -2.5229    2.2633   -0.1095 H       1  UNL1        0.0000
     61 H           0.7779    0.9604   -3.1964 H       1  UNL1        0.0000
     62 H           1.8748    1.9403   -3.2720 H       1  UNL1        0.0000
     63 H           1.2084    3.2189   -0.1901 H       1  UNL1        0.0000
     64 H           3.2420   -1.0276   -0.1259 H       1  UNL1        0.0000
     65 H          -1.3308   -3.1534    1.8886 H       1  UNL1        0.0000
     66 H          -1.6942    1.1642    2.3822 H       1  UNL1        0.0000
     67 H           2.3335    1.9164    1.7275 H       1  UNL1        0.0000
     68 EU          1.2636    1.8390    0.3070 Eu      1  UNL1        0.0000
@<TRIPOS>BOND
     1     1     2    2
     2     2     3   am
     3     3     4    1
     4     3     5    1
     5     5     6    1
     6     6     7    1
     7     2     8    1
     8     8     9   ar
     9     9    10   ar
    10     8    11   ar
    11    11    12   ar
    12    12    13   ar
    13    10    13   ar
    14    13    14   ar
    15    14    15   ar
    16    15    16   ar
    17    16    17   ar
    18    12    17   ar
    19    17    18   ar
    20    18    19   ar
    21    19    20    1
    22    20    21   ar
    23    21    22   ar
    24    22    23    1
    25    23    24    1
    26    23    25    1
    27    23    26    1
    28    26    27    1
    29    27    28    1
    30    28    29    1
    31    28    30    1
    32    22    31   ar
    33    28    31    1
    34    31    32   ar
    35    32    33   ar
    36    20    33   ar
    37    19    34   ar
    38    34    35   ar
    39    16    35   ar
    40     4    36    1
    41     4    37    1
    42     4    38    1
    43     5    39    1
    44     5    40    1
    45     6    41    1
    46     6    42    1
    47     7    43    1
    48     7    44    1
    49     7    45    1
    50     9    46    1
    51    10    47    1
    52    14    48    1
    53    15    49    1
    54    24    50    1
    55    24    51    1
    56    24    52    1
    57    25    53    1
    58    25    54    1
    59    25    55    1
    60    26    56    1
    61    26    57    1
    62    27    58    1
    63    27    59    1
    64    29    60    1
    65    29    61    1
    66    29    62    1
    67    30    63    1
    68    30    64    1
    69    30    65    1
    70    34    66    1
    71    35    67    1
    72    68     1    1
    73    68    33    1
    74    68    18    1
    75    68    11    1
@<TRIPOS>MOLECULE
*****
 68 75 0 0 0
SMALL
GASTEIGER

@<TRIPOS>ATOM
      1 O           1.2612   -0.3804   -1.0067 O.2     1  UNL1        0.0000
      2 C          -1.1927   -0.5387   -0.6190 C.2     1  UNL1        0.0000
      3 N          -1.1525   -0.9227    2.1986 N.am    1  UNL1        0.0000
      4 C          -1.2388   -0.6610    2.1961 C.3     1  UNL1        0.0000
      5 C          -0.8803   -0.8073    2.4627 C.3     1  UNL1        0.0000
      6 C           1.4356   -2.0642    2.8409 C.3     1  UNL1        0.0000
      7 C          -1.9554   -3.1365    0.2013 C.3     1  UNL1        0.0000
      8 C          -0.2489    2.4415    0.6302 C.ar    1  UNL1        0.0000
      9 C           1.6409    0.7763    1.0230 C.ar    1  UNL1        0.0000
     10 C          -0.0795   -0.0925   -3.8951 C.ar    1  UNL1        0.0000
     11 N           0.0030    2.6803   -0.1391 N.ar    1  UNL1        0.0000
     12 C           0.7221    2.2595   -2.0048 C.ar    1  UNL1        0.0000
     13 C          -1.6570    0.7643   -2.8628 C.ar    1  UNL1        0.0000
     14 C           0.3881   -2.3908    0.1227 C.ar    1  UNL1        0.0000
     15 C           0.3762   -2.3562    0.1523 C.ar    1  UNL1        0.0000
     16 C           0.4292   -0.8528   -2.2493 C.ar    1  UNL1        0.0000
     17 C           1.6462   -0.6361   -2.2335 C.ar    1  UNL1        0.0000
     18 N           0.8225   -0.5856    0.8159 N.ar    1  UNL1        0.0000
     19 C           0.1561   -0.9806    0.9962 C.ar    1  UNL1        0.0000
     20 C          -0.0006   -1.0527    1.1204 C.ar    1  UNL1        0.0000
     21 N          -1.7878    0.6746   -0.9891 N.ar    1  UNL1        0.0000
     22 C          -0.6098    0.3678   -1.8093 C.ar    1  UNL1        0.0000
     23 C          -1.0334   -3.9108   -0.9036 C.3     1  UNL1        0.0000
     24 C          -1.6769    1.3556    0.5669 C.3     1  UNL1        0.0000
     25 C           1.1275    1.0486   -1.1140 C.3     1  UNL1        0.0000
     26 C          -1.2395    0.4996    0.4330 C.3     1  UNL1        0.0000
     27 C          -2.4995   -0.2629    0.1357 C.3     1  UNL1        0.0000
     28 C           1.8897   -0.7319    1.9054 C.3     1  UNL1        0.0000
     29 C           0.8805    0.5609    2.3078 C.3     1  UNL1        0.0000
     30 C          -1.6732   -1.6133    0.4523 C.3     1  UNL1        0.0000
     31 C          -0.3661    0.7649   -1.7033 C.ar    1  UNL1        0.0000
     32 N          -1.7530    2.7943    1.1007 N.ar    1  UNL1        0.0000
     33 N           0.4443    1.9090    2.0761 N.ar    1  UNL1        0.0000
     34 C          -0.1473    0.0300    1.2914 C.ar    1  UNL1        0.0000
     35 C           0.0498    1.1839   -0.0737 C.ar    1  UNL1        0.0000
     36 H          -2.1152    0.1760    2.9018 H       1  UNL1        0.0000
     37 H          -0.2079   -3.3383    1.6942 H       1  UNL1        0.0000
     38 H          -0.1465    1.5336    3.1149 H       1  UNL1        0.0000
     39 H          -0.2188   -2.5122   -2.4187 H       1  UNL1        0.0000
     40 H          -2.5135   -0.8120    1.3950 H       1  UNL1        0.0000
     41 H           2.2205   -2.1586    1.9643 H       1  UNL1        0.0000
     42 H          -2.5520   -0.4084   -1.2725 H       1  UNL1        0.0000
     43 H          -1.2635    2.4365   -3.7955 H       1  UNL1        0.0000
     44 H           2.2285    1.7133   -0.6622 H       1  UNL1        0.0000
     45 H           2.1455   -1.5033    0.1611 H       1  UNL1        0.0000
     46 H          -2.4671   -1.4305    2.4203 H       1  UNL1        0.0000
     47 H           0.3869   -1.2181   -3.6590 H       1  UNL1        0.0000
     48 H           3.6953   -0.4399   -2.0523 H       1  UNL1        0.0000
     49 H          -0.9615    0.7992    3.2601 H       1  UNL1        0.0000
     50 H          -0.9053   -1.9477    1.4870 H       1  UNL1        0.0000
     51 H          -1.8869   -1.5824   -1.3996 H       1  UNL1        0.0000
     52 H          -1.2728    3.2805   -0.4902 H       1  UNL1        0.0000
     53 H           0.2135   -3.5451   -1.6784 H       1  UNL1        0.0000
     54 H          -1.2321    2.1507   -0.4182 H       1  UNL1        0.0000
     55 H           0.7891   -1.4665   -0.7656 H       1  UNL1        0.0000
     56 H           2.8466    1.1462    1.0297 H       1  UNL1        0.0000
     57 H           0.9726   -2.1850   -3.0286 H       1  UNL1        0.0000
     58 H          -1.7293   -1.8062   -3.1238 H       1  UNL1        0.0000
     59 H           0.9760   -0.7756    2.1727 H       1  UNL1        0.0000
     60 H          -2.5229    2.2633   -0.1095 H       1  UNL1        0.0000
     61 H           0.7779    0.9604   -3.1964 H       1  UNL1        0.0000
     62 H           1.8748    1.9403   -3.2720 H       1  UNL1        0.0000
     63 H           1.2084    3.2189   -0.1901 H       1  UNL1        0.0000
     64 H           3.2420   -1.0276   -0.1259 H       1  UNL1        0.0000
     65 H          -1.3308   -3.1534    1.8886 H       1  UNL1        0.0000
     66 H          -1.6942    1.1642    2.3822 H       1  UNL1        0.0000
     67 H           2.3335    1.9164    1.7275 H       1  UNL1        0.0000
     68 EU          1.2636    1.8390    0.3070 Eu      1  UNL1        0.0000
@<TRIPOS>BOND
     1     1     2    2
     2     2     3   am
     3     3     4    1
     4     3     5    1
     5     5     6    1
     6     6     7    1
     7     2     8    1
     8     8     9   ar
     9     9    10   ar
    10     8    11   ar
    11    11    12   ar
    12    12    13   ar
    13    10    13   ar
    14    13    14   ar
    15    14    15   ar
    16    15    16   ar
    17    16    17   ar
    18    12    17   ar
    19    17    18   ar
    20    18    19   ar
    21    19    20    1
    22    20    21   ar
    23    21    22   ar
    24    22    23    1
    25    23    24    1
    26    23    25    1
    27    23    26    1
    28    26    27    1
    29    27    28    1
    30    28    29    1
    31    28    30    1
    32    22    31   ar
    33    28    31    1
    34    31    32   ar
    35    32    33   ar
    36    20    33   ar
    37    19    34   ar
    38    34    35   ar
    39    16    35   ar
    40     4    36    1
    41     4    37    1
    42     4    38    1
    43     5    39    1
    44     5    40    1
    45     6    41    1
    46     6    42    1
    47     7    43    1
    48     7    44    1
    49     7    45    1
    50     9    46    1
    51    10    47    1
    52    14    48    1
    53    15    49    1
    54    24    50    1
    55    24    51    1
    56    24    52    1
    57    25    53    1
    58    25    54    1
    59    25    55    1
    60    26    56    1
    61    26    57    1
    62    27    58    1
    63    27    59    1
    64    29    60    1
    65    29    61    1
    66    29    62    1
    67    30    63    1
    68    30    64    1
    69    30    65    1
    70    34    66    1
    71    35    67    1
    72    68     1    1
    73    68    33    1
    74    68    18    1
    75    68    11    1
@<TRIPOS>MOLECULE
*****
 68 75 0 0 0
SMALL
GASTEIGER

@<TRIPOS>ATOM
      1 O           1.2612   -0.3804   -1.0067 O.2     1  UNL1        0.0000
      2 C          -1.1927   -0.5387   -0.6190 C.2     1  UNL1        0.0000
      3 N          -1.1525   -0.9227    2.1986 N.am    1  UNL1        0.0000
      4 C          -1.2388   -0.6610    2.1961 C.3     1  UNL1        0.0000
      5 C          -0.8803   -0.8073    2.4627 C.3     1  UNL1        0.0000
      6 C           1.4356   -2.0642    2.8409 C.3     1  UNL1        0.0000
      7 C          -1.9554   -3.1365    0.2013 C.3     1  UNL1        0.0000
      8 C          -0.2489    2.4415    0.6302 C.ar    1  UNL1        0.0000
      9 C           1.6409    0.7763    1.0230 C.ar    1  UNL1        0.0000
     10 C          -0.0795   -0.0925   -3.8951 C.ar    1  UNL1        0.0000
     11 N           0.0030    2.6803   -0.1391 N.ar    1  UNL1        0.0000
     12 C           0.7221    2.2595   -2.0048 C.ar    1  UNL1        0.0000
     13 C          -1.6570    0.7643   -2.8628 C.ar    1  UNL1        0.0000
     14 C           0.3881   -2.3908    0.1227 C.ar    1  UNL1        0.0000
     15 C           0.3762   -2.3562    0.1523 C.ar    1  UNL1        0.0000
     16 C           0.4292   -0.8528   -2.2493 C.ar    1  UNL1        0.0000
     17 C           1.6462   -0.6361   -2.2335 C.ar    1  UNL1        0.0000
     18 N           0.8225   -0.5856    0.8159 N.ar    1  UNL1        0.0000
     19 C           0.1561   -0.9806    0.9962 C.ar    1  UNL1        0.0000
     20 C          -0.0006   -1.0527    1.1204 C.ar    1  UNL1        0.0000
     21 N          -1.7878    0.6746   -0.9891 N.ar    1  UNL1        0.0000
     22 C          -0.6098    0.3678   -1.8093 C.ar    1  UNL1        0.0000
     23 C          -1.0334   -3.9108   -0.9036 C.3     1  UNL1        0.0000
     24 C          -1.6769    1.3556    0.5669 C.3     1  UNL1        0.0000
     25 C           1.1275    1.0486   -1.1140 C.3     1  UNL1        0.0000
     26 C          -1.2395    0.4996    0.4330 C.3     1  UNL1        0.0000
     27 C          -2.4995   -0.2629    0.1357 C.3     1  UNL1        0.0000
     28 C           1.8897   -0.7319    1.9054 C.3     1  UNL1        0.0000
     29 C           0.8805    0.5609    2.3078 C.3     1  UNL1        0.0000
     30 C          -1.6732   -1.6133    0.4523 C.3     1  UNL1        0.0000
     31 C          -0.3661    0.7649   -1.7033 C.ar    1  UNL1        0.0000
     32 N          -1.7530    2.7943    1.1007 N.ar    1  UNL1        0.0000
     33 N           0.4443    1.9090    2.0761 N.ar    1  UNL1        0.0000
     34 C          -0.1473    0.0300    1.2914 C.ar    1  UNL1        0.0000
     35 C           0.0498    1.1839   -0.0737 C.ar    1  UNL1        0.0000
     36 H          -2.1152    0.1760    2.9018 H       1  UNL1        0.0000
     37 H          -0.2079   -3.3383    1.6942 H       1  UNL1        0.0000
     38 H          -0.1465    1.5336    3.1149 H       1  UNL1        0.0000
     39 H          -0.2188   -2.5122   -2.4187 H       1  UNL1        0.0000
     40 H          -2.5135   -0.8120    1.3950 H       1  UNL1        0.0000
     41 H           2.2205   -2.1586    1.9643 H       1  UNL1        0.0000
     42 H          -2.5520   -0.4084   -1.2725 H       1  UNL1        0.0000
     43 H          -1.2635    2.4365   -3.7955 H       1  UNL1        0.0000
     44 H           2.2285    1.7133   -0.6622 H       1  UNL1        0.0000
     45 H           2.1455   -1.5033    0.1611 H       1  UNL1        0.0000
     46 H          -2.4671   -1.4305    2.4203 H       1  UNL1        0.0000
     47 H           0.3869   -1.2181   -3.6590 H       1  UNL1        0.0000
     48 H           3.6953   -0.4399   -2.0523 H       1  UNL1        0.0000
     49 H          -0.9615    0.7992    3.2601 H       1  UNL1        0.0000
     50 H          -0.9053   -1.9477    1.4870 H       1  UNL1        0.0000
     51 H          -1.8869   -1.5824   -1.3996 H       1  UNL1        0.0000
     52 H          -1.2728    3.2805   -0.4902 H       1  UNL1        0.0000
     53 H           0.2135   -3.5451   -1.6784 H       1  UNL1        0.0000
     54 H          -1.2321    2.1507   -0.4182 H       1  UNL1        0.0000
     55 H           0.7891   -1.4665   -0.7656 H       1  UNL1        0.0000
     56 H           2.8466    1.1462    1.0297 H       1  UNL1        0.0000
     57 H           0.9726   -2.1850   -3.0286 H       1  UNL1        0.0000
     58 H          -1.7293   -1.8062   -3.1238 H       1  UNL1        0.0000
     59 H           0.9760   -0.7756    2.1727 H       1  UNL1        0.0000
     60 H          -2.5229    2.2633   -0.1095 H       1  UNL1        0.0000
     61 H           0.7779    0.9604   -3.1964 H       1  UNL1        0.0000
     62 H           1.8748    1.9403   -3.2720 H       1  UNL1        0.0000
     63 H           1.2084    3.2189   -0.1901 H       1  UNL1        0.0000
     64 H           3.2420   -1.0276   -0.1259 H       1  UNL1        0.0000
     65 H          -1.3308   -3.1534    1.8886 H       1  UNL1        0.0000
     66 H          -1.6942    1.1642    2.3822 H       1  UNL1        0.0000
     67 H           2.3335    1.9164    1.7275 H       1  UNL1        0.0000
     68 EU          1.2636    1.8390    0.3070 Eu      1  UNL1        0.0000
@<TRIPOS>BOND
     1     1     2    2
     2     2     3   am
     3     3     4    1
     4     3     5    1
     5     5     6    1
     6     6     7    1
     7     2     8    1
     8     8     9   ar
     9     9    10   ar
    10     8    11   ar
    11    11    12   ar
    12    12    13   ar
    13    10    13   ar
    14    13    14   ar
    15    14    15   ar
    16    15    16   ar
    17    16    17   ar
    18    12    17   ar
    19    17    18   ar
    20    18    19   ar
    21    19    20    1
    22    20    21   ar
    23    21    22   ar
    24    22    23    1
    25    23    24    1
    26    23    25    1
    27    23    26    1
    28    26    27    1
    29    27    28    1
    30    28    29    1
    31    28    30    1
    32    22    31   ar
    33    28    31    1
    34    31    32   ar
    35    32    33   ar
    36    20    33   ar
    37    19    34   ar
    38    34    35   ar
    39    16    35   ar
    40     4    36    1
    41     4    37    1
    42     4    38    1
    43     5    39    1
    44     5    40    1
    45     6    41    1
    46     6    42    1
    47     7    43    1
    48     7    44    1
    49     7    45    1
    50     9    46    1
    51    10    47    1
    52    14    48    1
    53    15    49    1
    54    24    50    1
    55    24    51    1
    56    24    52    1
    57    25    53    1
    58    25    54    1
    59    25    55    1
    60    26    56    1
    61    26    57    1
    62    27    58    1
    63    27    59    1
    64    29    60    1
    65    29    61    1
    66    29    62    1
    67    30    63    1
    68    30    64    1
    69    30    65    1
    70    34    66    1
    71    35    67    1
    72    68     1    1
    73    68    33    1
    74    68    18    1
    75    68    11    1
@<TRIPOS>MOLECULE
*****
 68 75 0 0 0
SMALL
GASTEIGER

@<TRIPOS>ATOM
      1 O           1.2612   -0.3804   -1.0067 O.2     1  UNL1        0.0000
      2 C          -1.1927   -0.5387   -0.6190 C.2     1  UNL1        0.0000
      3 N          -1.1525   -0.9227    2.1986 N.am    1  UNL1        0.0000
      4 C          -1.2388   -0.6610    2.1961 C.3     1  UNL1        0.0000
      5 C          -0.8803   -0.8073    2.4627 C.3     1  UNL1        0.0000
      6 C           1.4356   -2.0642    2.8409 C.3     1  UNL1        0.0000
      7 C          -1.9554   -3.1365    0.2013 C.3     1  UNL1        0.0000
      8 C          -0.2489    2.4415    0.6302 C.ar    1  UNL1        0.0000
      9 C           1.6409    0.7763    1.0230 C.ar    1  UNL1        0.0000
     10 C          -0.0795   -0.0925   -3.8951 C.ar    1  UNL1        0.0000
     11 N           0.0030    2.6803   -0.1391 N.ar    1  UNL1        0.0000
     12 C           0.7221    2.2595   -2.0048 C.ar    1  UNL1        0.0000
     13 C          -1.6570    0.7643   -2.8628 C.ar    1  UNL1        0.0000
     14 C           0.3881   -2.3908    0.1227 C.ar    1  UNL1        0.0000
     15 C           0.3762   -2.3562    0.1523 C.ar    1  UNL1        0.0000
     16 C           0.4292   -0.8528   -2.2493 C.ar    1  UNL1        0.0000
     17 C           1.6462   -0.6361   -2.2335 C.ar    1  UNL1        0.0000
     18 N           0.8225   -0.5856    0.8159 N.ar    1  UNL1        0.0000
     19 C           0.1561   -0.9806    0.9962 C.ar    1  UNL1        0.0000
     20 C          -0.0006   -1.0527    1.1204 C.ar    1  UNL1        0.0000
     21 N          -1.7878    0.6746   -0.9891 N.ar    1  UNL1        0.0000
     22 C          -0.6098    0.3678   -1.8093 C.ar    1  UNL1        0.0000
     23 C          -1.0334   -3.9108   -0.9036 C.3     1  UNL1        0.0000
     24 C          -1.6769    1.3556    0.5669 C.3     1  UNL1        0.0000
     25 C           1.1275    1.0486   -1.1140 C.3     1  UNL1        0.0000
     26 C          -1.2395    0.4996    0.4330 C.3     1  UNL1        0.0000
     27 C          -2.4995   -0.2629    0.1357 C.3     1  UNL1        0.0000
     28 C           1.8897   -0.7319    1.9054 C.3     1  UNL1        0.0000
     29 C           0.8805    0.5609    2.3078 C.3     1  UNL1        0.0000
     30 C          -1.6732   -1.6133    0.4523 C.3     1  UNL1        0.0000
     31 C          -0.3661    0.7649   -1.7033 C.ar    1  UNL1        0.0000
     32 N          -1.7530    2.7943    1.1007 N.ar    1  UNL1        0.0000
     33 N           0.4443    1.9090    2.0761 N.ar    1  UNL1        0.0000
     34 C          -0.1473    0.0300    1.2914 C.ar    1  UNL1        0.0000
     35 C           0.0498    1.1839   -0.0737 C.ar    1  UNL1        0.0000
     36 H          -2.1152    0.1760    2.9018 H       1  UNL1        0.0000
     37 H          -0.2079   -3.3383    1.6942 H       1  UNL1        0.0000
     38 H          -0.1465    1.5336    3.1149 H       1  UNL1        0.0000
     39 H          -0.2188   -2.5122   -2.4187 H       1  UNL1        0.0000
     40 H          -2.5135   -0.8120    1.3950 H       1  UNL1        0.0000
     41 H           2.2205   -2.1586    1.9643 H       1  UNL1        0.0000
     42 H          -2.5520   -0.4084   -1.2725 H       1  UNL1        0.0000
     43 H          -1.2635    2.4365   -3.7955 H       1  UNL1        0.0000
     44 H           2.2285    1.7133   -0.6622 H       1  UNL1        0.0000
     45 H           2.1455   -1.5033    0.1611 H       1  UNL1        0.0000
     46 H          -2.4671   -1.4305    2.4203 H       1  UNL1        0.0000
     47 H           0.3869   -1.2181   -3.6590 H       1  UNL1        0.0000
     48 H           3.6953   -0.4399   -2.0523 H       1  UNL1        0.0000
     49 H          -0.9615    0.7992    3.2601 H       1  UNL1        0.0000
     50 H          -0.9053   -1.9477    1.4870 H       1  UNL1        0.0000
     51 H          -1.8869   -1.5824   -1.3996 H       1  UNL1        0.0000
     52 H          -1.2728    3.2805   -0.4902 H       1  UNL1        0.0000
     53 H           0.2135   -3.5451   -1.6784 H       1  UNL1        0.0000
     54 H          -1.2321    2.1507   -0.4182 H       1  UNL1        0.0000
     55 H           0.7891   -1.4665   -0.7656 H       1  UNL1        0.0000
     56 H           2.8466    1.1462    1.0297 H       1  UNL1        0.0000
     57 H           0.9726   -2.1850   -3.0286 H       1  UNL1        0.0000
     58 H          -1.7293   -1.8062   -3.1238 H       1  UNL1        0.0000
     59 H           0.9760   -0.7756    2.1727 H       1  UNL1        0.0000
     60 H          -2.5229    2.2633   -0.1095 H       1  UNL1        0.0000
     61 H           0.7779    0.9604   -3.1964 H       1  UNL1        0.0000
     62 H           1.8748    1.9403   -3.2720 H       1  UNL1        0.0000
     63 H           1.2084    3.2189   -0.1901 H       1  UNL1        0.0000
     64 H           3.2420   -1.0276   -0.1259 H       1  UNL1        0.0000
     65 H          -1.3308   -3.1534    1.8886 H       1  UNL1        0.0000
     66 H          -1.6942    1.1642    2.3822 H       1  UNL1        0.0000
     67 H           2.3335    1.9164    1.7275 H       1  UNL1        0.0000
     68 EU          1.2636    1.8390    0.3070 Eu      1  UNL1        0.0000
@<TRIPOS>BOND
     1     1     2    2
     2     2     3   am
     3     3     4    1
     4     3     5    1
     5     5     6    1
     6     6     7    1
     7     2     8    1
     8     8     9   ar
     9     9    10   ar
    10     8    11   ar
    11    11    12   ar
    12    12    13   ar
    13    10    13   ar
    14    13    14   ar
    15    14    15   ar
    16    15    16   ar
    17    16    17   ar
    18    12    17   ar
    19    17    18   ar
    20    18    19   ar
    21    19    20    1
    22    20    21   ar
    23    21    22   ar
    24    22    23    1
    25    23    24    1
    26    23    25    1
    27    23    26    1
    28    26    27    1
    29    27    28    1
    30    28    29    1
    31    28    30    1
    32    22    31   ar
    33    28    31    1
    34    31    32   ar
    35    32    33   ar
    36    20    33   ar
    37    19    34   ar
    38    34    35   ar
    39    16    35   ar
    40     4    36    1
    41     4    37    1
    42     4    38    1
    43     5    39    1
    44     5    40    1
    45     6    41    1
    46     6    42    1
    47     7    43    1
    48     7    44    1
    49     7    45    1
    50     9    46    1
    51    10    47    1
    52    14    48    1
    53    15    49    1
    54    24    50    1
    55    24    51    1
    56    24    52    1
    57    25    53    1
    58    25    54    1
    59    25    55    1
    60    26    56    1
    61    26    57    1
    62    27    58    1
    63    27    59    1
    64    29    60    1
    65    29    61    1
    66    29    62    1
    67    30    63    1
    68    30    64    1
    69    30    65    1
    70    34    66    1
    71    35    67    1
    72    68     1    1
    73    68    33    1
    74    68    18    1
    75    68    11    1
@<TRIPOS>MOLECULE
*****
 68 75 0 0 0
SMALL
GASTEIGER

@<TRIPOS>ATOM
      1 O           1.2612   -0.3804   -1.0067 O.2     1  UNL1        0.0000
      2 C          -1.1927   -0.5387   -0.6190 C.2     1  UNL1        0.0000
      3 N          -1.1525   -0.9227    2.1986 N.am    1  UNL1        0.0000
      4 C          -1.2388   -0.6610    2.1961 C.3     1  UNL1        0.0000
      5 C          -0.8803   -0.8073    2.4627 C.3     1  UNL1        0.0000
      6 C           1.4356   -2.0642    2.8409 C.3     1  UNL1        0.0000
      7 C          -1.9554   -3.1365    0.2013 C.3     1  UNL1        0.0000
      8 C          -0.2489    2.4415    0.6302 C.ar    1  UNL1        0.0000
      9 C           1.6409    0.7763    1.0230 C.ar    1  UNL1        0.0000
     10 C          -0.0795   -0.0925   -3.8951 C.ar    1  UNL1        0.0000
     11 N           0.0030    2.6803   -0.1391 N.ar    1  UNL1        0.0000
     12 C           0.7221    2.2595   -2.0048 C.ar    1  UNL1        0.0000
     13 C          -1.6570    0.7643   -2.8628 C.ar    1  UNL1        0.0000
     14 C           0.3881   -2.3908    0.1227 C.ar    1  UNL1        0.0000
     15 C           0.3762   -2.3562    0.1523 C.ar    1  UNL1        0.0000
     16 C           0.4292   -0.8528   -2.2493 C.ar    1  UNL1        0.0000
     17 C           1.6462   -0.6361   -2.2335 C.ar    1  UNL1        0.0000
     18 N           0.8225   -0.5856    0.8159 N.ar    1  UNL1        0.0000
     19 C           0.1561   -0.9806    0.9962 C.ar    1  UNL1        0.0000
     20 C          -0.0006   -1.0527    1.1204 C.ar    1  UNL1        0.0000
     21 N          -1.7878    0.6746   -0.9891 N.ar    1  UNL1        0.0000
     22 C          -0.6098    0.3678   -1.8093 C.ar    1  UNL1        0.0000
     23 C          -1.0334   -3.9108   -0.9036 C.3     1  UNL1        0.0000
     24 C          -1.6769    1.3556    0.5669 C.3     1  UNL1        0.0000
     25 C           1.1275    1.0486   -1.1140 C.3     1  UNL1        0.0000
     26 C          -1.2395    0.4996    0.4330 C.3     1  UNL1        0.0000
     27 C          -2.4995   -0.2629    0.1357 C.3     1  UNL1        0.0000
     28 C           1.8897   -0.7319    1.9054 C.3     1  UNL1        0.0000
     29 C           0.8805    0.5609    2.3078 C.3     1  UNL1        0.0000
     30 C          -1.6732   -1.6133    0.4523 C.3     1  UNL1        0.0000
     31 C          -0.3661    0.7649   -1.7033 C.ar    1  UNL1        0.0000
     32 N          -1.7530    2.7943    1.1007 N.ar    1  UNL1        0.0000
     33 N           0.4443    1.9090    2.0761 N.ar    1  UNL1        0.0000
     34 C          -0.1473    0.0300    1.2914 C.ar    1  UNL1        0.0000
     35 C           0.0498    1.1839   -0.0737 C.ar    1  UNL1        0.0000
     36 H          -2.1152    0.1760    2.9018 H       1  UNL1        0.0000
     37 H          -0.2079   -3.3383    1.6942 H       1  UNL1        0.0000
     38 H          -0.1465    1.5336    3.1149 H       1  UNL1        0.0000
     39 H          -0.2188   -2.5122   -2.4187 H       1  UNL1        0.0000
     40 H          -2.5135   -0.8120    1.3950 H       1  UNL1        0.0000
     41 H           2.2205   -2.1586    1.9643 H       1  UNL1        0.0000
     42 H          -2.5520   -0.4084   -1.2725 H       1  UNL1        0.0000
     43 H          -1.2635    2.4365   -3.7955 H       1  UNL1        0.0000
     44 H           2.2285    1.7133   -0.6622 H       1  UNL1        0.0000
     45 H           2.1455   -1.5033    0.1611 H       1  UNL1        0.0000
     46 H          -2.4671   -1.4305    2.4203 H       1  UNL1        0.0000
     47 H           0.3869   -1.2181   -3.6590 H       1  UNL1        0.0000
     48 H           3.6953   -0.4399   -2.0523 H       1  UNL1        0.0000
     49 H          -0.9615    0.7992    3.2601 H       1  UNL1        0.0000
     50 H          -0.9053   -1.9477    1.4870 H       1  UNL1        0.0000
     51 H          -1.8869   -1.5824   -1.3996 H       1  UNL1        0.0000
     52 H          -1.2728    3.2805   -0.4902 H       1  UNL1        0.0000
     53 H           0.2135   -3.5451   -1.6784 H       1  UNL1        0.0000
     54 H          -1.2321    2.1507   -0.4182 H       1  UNL1        0.0000
     55 H           0.7891   -1.4665   -0.7656 H       1  UNL1        0.0000
     56 H           2.8466    1.1462    1.0297 H       1  UNL1        0.0000
     57 H           0.9726   -2.1850   -3.0286 H       1  UNL1        0.0000
     58 H          -1.7293   -1.8062   -3.1238 H       1  UNL1        0.0000
     59 H           0.9760   -0.7756    2.1727 H       1  UNL1        0.0000
     60 H          -2.5229    2.2633   -0.1095 H       1  UNL1        0.0000
     61 H           0.7779    0.9604   -3.1964 H       1  UNL1        0.0000
     62 H           1.8748    1.9403   -3.2720 H       1  UNL1        0.0000
     63 H           1.2084    3.2189   -0.1901 H       1  UNL1        0.0000
     64 H           3.2420   -1.0276   -0.1259 H       1  UNL1        0.0000
     65 H          -1.3308   -3.1534    1.8886 H       1  UNL1        0.0000
     66 H          -1.6942    1.1642    2.3822 H       1  UNL1        0.0000
     67 H           2.3335    1.9164    1.7275 H       1  UNL1        0.0000
     68 EU          1.2636    1.8390    0.3070 Eu      1  UNL1        0.0000
@<TRIPOS>BOND
     1     1     2    2
     2     2     3   am
     3     3     4    1
     4     3     5    1
     5     5     6    1
     6     6     7    1
     7     2     8    1
     8     8     9   ar
     9     9    10   ar
    10     8    11   ar
    11    11    12   ar
    12    12    13   ar
    13    10    13   ar
    14    13    14   ar
    15    14    15   ar
    16    15    16   ar
    17    16    17   ar
    18    12    17   ar
    19    17    18   ar
    20    18    19   ar
    21    19    20    1
    22    20    21   ar
    23    21    22   ar
    24    22    23    1
    25    23    24    1
    26    23    25    1
    27    23    26    1
    28    26    27    1
    29    27    28    1
    30    28    29    1
    31    28    30    1
    32    22    31   ar
    33    28    31    1
    34    31    32   ar
    35    32    33   ar
    36    20    33   ar
    37    19    34   ar
    38    34    35   ar
    39    16    35   ar
    40     4    36    1
    41     4    37    1
    42     4    38    1
    43     5    39    1
    44     5    40    1
    45     6    41    1
    46     6    42    1
    47     7    43    1
    48     7    44    1
    49     7    45    1
    50     9    46    1
    51    10    47    1
    52    14    48    1
    53    15    49    1
    54    24    50    1
    55    24    51    1
    56    24    52    1
    57    25    53    1
    58    25    54    1
    59    25    55    1
    60    26    56    1
    61    26    57    1
    62    27    58    1
    63    27    59    1
    64    29    60    1
    65    29    61    1
    66    29    62    1
    67    30    63    1
    68    30    64    1
    69    30    65    1
    70    34    66    1
    71    35    67    1
    72    68     1    1
    73    68    33    1
    74    68    18    1
    75    68    11    1
@<TRIPOS>MOLECULE
*****
 68 75 0 0 0
SMALL
GASTEIGER

@<TRIPOS>ATOM
      1 O           1.2612   -0.3804   -1.0067 O.2     1  UNL1        0.0000
      2 C          -1.1927   -0.5387   -0.6190 C.2     1  UNL1        0.0000
      3 N          -1.1525   -0.9227    2.1986 N.am    1  UNL1        0.0000
      4 C          -1.2388   -0.6610    2.1961 C.3     1  UNL1        0.0000
      5 C          -0.8803   -0.8073    2.4627 C.3     1  UNL1        0.0000
      6 C           1.4356   -2.0642    2.8409 C.3     1  UNL1        0.0000
      7 C          -1.9554   -3.1365    0.2013 C.3     1  UNL1        0.0000
      8 C          -0.2489    2.4415    0.6302 C.ar    1  UNL1        0.0000
      9 C           1.6409    0.7763    1.0230 C.ar    1  UNL1        0.0000
     10 C          -0.0795   -0.0925   -3.8951 C.ar    1  UNL1        0.0000
     11 N           0.0030    2.6803   -0.1391 N.ar    1  UNL1        0.0000
     12 C           0.7221    2.2595   -2.0048 C.ar    1  UNL1        0.0000
     13 C          -1.6570    0.7643   -2.8628 C.ar    1  UNL1        0.0000
     14 C           0.3881   -2.3908    0.1227 C.ar    1  UNL1        0.0000
     15 C           0.3762   -2.3562    0.1523 C.ar    1  UNL1        0.0000
     16 C           0.4292   -0.8528   -2.2493 C.ar    1  UNL1        0.0000
     17 C           1.6462   -0.6361   -2.2335 C.ar    1  UNL1        0.0000
     18 N           0.8225   -0.5856    0.8159 N.ar    1  UNL1        0.0000
     19 C           0.1561   -0.9806    0.9962 C.ar    1  UNL1        0.0000
     20 C          -0.0006   -1.0527    1.1204 C.ar    1  UNL1        0.0000
     21 N          -1.7878    0.6746   -0.9891 N.ar    1  UNL1        0.0000
     22 C          -0.6098    0.3678   -1.8093 C.ar    1  UNL1        0.0000
     23 C          -1.0334   -3.9108   -0.9036 C.3     1  UNL1        0.0000
     24 C          -1.6769    1.3556    0.5669 C.3     1  UNL1        0.0000
     25 C           1.1275    1.0486   -1.1140 C.3     1  UNL1        0.0000
     26 C          -1.2395    0.4996    0.4330 C.3     1  UNL1        0.0000
     27 C          -2.4995   -0.2629    0.1357 C.3     1  UNL1        0.0000
     28 C           1.8897   -0.7319    1.9054 C.3     1  UNL1        0.0000
     29 C           0.8805    0.5609    2.3078 C.3     1  UNL1        0.0000
     30 C          -1.6732   -1.6133    0.4523 C.3     1  UNL1        0.0000
     31 C          -0.3661    0.7649   -1.7033 C.ar    1  UNL1        0.0000
     32 N          -1.7530    2.7943    1.1007 N.ar    1  UNL1        0.0000
     33 N           0.4443    1.9090    2.0761 N.ar    1  UNL1        0.0000
     34 C          -0.1473    0.0300    1.2914 C.ar    1  UNL1        0.0000
     35 C           0.0498    1.1839   -0.0737 C.ar    1  UNL1        0.0000
     36 H          -2.1152    0.1760    2.9018 H       1  UNL1        0.0000
     37 H          -0.2079   -3.3383    1.6942 H       1  UNL1        0.0000
     38 H          -0.1465    1.5336    3.1149 H       1  UNL1        0.0000
     39 H          -0.2188   -2.5122   -2.4187 H       1  UNL1        0.0000
     40 H          -2.5135   -0.8120    1.3950 H       1  UNL1        0.0000
     41 H           2.2205   -2.1586    1.9643 H       1  UNL1        0.0000
     42 H          -2.5520   -0.4084   -1.2725 H       1  UNL1        0.0000
     43 H          -1.2635    2.4365   -3.7955 H       1  UNL1        0.0000
     44 H           2.2285    1.7133   -0.6622 H       1  UNL1        0.0000
     45 H           2.1455   -1.5033    0.1611 H       1  UNL1        0.0000
     46 H          -2.4671   -1.4305    2.4203 H       1  UNL1        0.0000
     47 H           0.3869   -1.2181   -3.6590 H       1  UNL1        0.0000
     48 H           3.6953   -0.4399   -2.0523 H       1  UNL1        0.0000
     49 H          -0.9615    0.7992    3.2601 H       1  UNL1        0.0000
     50 H          -0.9053   -1.9477    1.4870 H       1  UNL1        0.0000
     51 H          -1.8869   -1.5824   -1.3996 H       1  UNL1        0.0000
     52 H          -1.2728    3.2805   -0.4902 H       1  UNL1        0.0000
     53 H           0.2135   -3.5451   -1.6784 H       1  UNL1        0.0000
     54 H          -1.2321    2.1507   -0.4182 H       1  UNL1        0.0000
     55 H           0.7891   -1.4665   -0.7656 H       1  UNL1        0.0000
     56 H           2.8466    1.1462    1.0297 H       1  UNL1        0.0000
     57 H           0.9726   -2.1850   -3.0286 H       1  UNL1        0.0000
     58 H          -1.7293   -1.8062   -3.1238 H       1  UNL1        0.0000
     59 H           0.9760   -0.7756    2.1727 H       1  UNL1        0.0000
     60 H          -2.5229    2.2633   -0.1095 H       1  UNL1        0.0000
     61 H           0.7779    0.9604   -3.1964 H       1  UNL1        0.0000
     62 H           1.8748    1.9403   -3.2720 H       1  UNL1        0.0000
     63 H           1.2084    3.2189   -0.1901 H       1  UNL1        0.0000
     64 H           3.2420   -1.0276   -0.1259 H       1  UNL1        0.0000
     65 H          -1.3308   -3.1534    1.8886 H       1  UNL1        0.0000
     66 H          -1.6942    1.1642    2.3822 H       1  UNL1        0.0000
     67 H           2.3335    1.9164    1.7275 H       1  UNL1        0.0000
     68 EU          1.2636    1.8390    0.3070 Eu      1  UNL1        0.0000
@<TRIPOS>BOND
     1     1     2    2
     2     2     3   am
     3     3     4    1
     4     3     5    1
     5     5     6    1
     6     6     7    1
     7     2     8    1
     8     8     9   ar
     9     9    10   ar
    10     8    11   ar
    11    11    12   ar
    12    12    13   ar
    13    10    13   ar
    14    13    14   ar
    15    14    15   ar
    16    15    16   ar
    17    16    17   ar
    18    12    17   ar
    19    17    18   ar
    20    18    19   ar
    21    19    20    1
    22    20    21   ar
    23    21    22   ar
    24    22    23    1
    25    23    24    1
    26    23    25    1
    27    23    26    1
    28    26    27    1
    29    27    28    1
    30    28    29    1
    31    28    30    1
    32    22    31   ar
    33    28    31    1
    34    31    32   ar
    35    32    33   ar
    36    20    33   ar
    37    19    34   ar
    38    34    35   ar
    39    16    35   ar
    40     4    36    1
    41     4    37    1
    42     4    38    1
    43     5    39    1
    44     5    40    1
    45     6    41    1
    46     6    42    1
    47     7    43    1
    48     7    44    1
    49     7    45    1
    50     9    46    1
    51    10    47    1
    52    14    48    1
    53    15    49    1
    54    24    50    1
    55    24    51    1
    56    24    52    1
    57    25    53    1
    58    25    54    1
    59    25    55    1
    60    26    56    1
    61    26    57    1
    62    27    58    1
    63    27    59    1
    64    29    60    1
    65    29    61    1
    66    29    62    1
    67    30    63    1
    68    30    64    1
    69    30    65    1
    70    34    66    1
    71    35    67    1
    72    68     1    1
    73    68    33    1
    74    68    18    1
    75    68    11    1
@<TRIPOS>MOLECULE
*****
 68 75 0 0 0
SMALL
GASTEIGER

@<TRIPOS>ATOM
      1 O           1.2612   -0.3804   -1.0067 O.2     1  UNL1        0.0000
      2 C          -1.1927   -0.5387   -0.6190 C.2     1  UNL1        0.0000
      3 N          -1.1525   -0.9227    2.1986 N.am    1  UNL1        0.0000
      4 C          -1.2388   -0.6610    2.1961 C.3     1  UNL1        0.0000
      5 C          -0.8803   -0.8073    2.4627 C.3     1  UNL1        0.0000
      6 C           1.4356   -2.0642    2.8409 C.3     1  UNL1        0.0000
      7 C          -1.9554   -3.1365    0.2013 C.3     1  UNL1        0.0000
      8 C          -0.2489    2.4415    0.6302 C.ar    1  UNL1        0.0000
      9 C           1.6409    0.7763    1.0230 C.ar    1  UNL1        0.0000
     10 C          -0.0795   -0.0925   -3.8951 C.ar    1  UNL1        0.0000
     11 N           0.0030    2.6803   -0.1391 N.ar    1  UNL1        0.0000
     12 C           0.7221    2.2595   -2.0048 C.ar    1  UNL1        0.0000
     13 C          -1.6570    0.7643   -2.8628 C.ar    1  UNL1        0.0000
     14 C           0.3881   -2.3908    0.1227 C.ar    1  UNL1        0.0000
     15 C           0.3762   -2.3562    0.1523 C.ar    1  UNL1        0.0000
     16 C           0.4292   -0.8528   -2.2493 C.ar    1  UNL1        0.0000
     17 C           1.6462   -0.6361   -2.2335 C.ar    1  UNL1        0.0000
     18 N           0.8225   -0.5856    0.8159 N.ar    1  UNL1        0.0000
     19 C           0.1561   -0.9806    0.9962 C.ar    1  UNL1        0.0000
     20 C          -0.0006   -1.0527    1.1204 C.ar    1  UNL1        0.0000
     21 N          -1.7878    0.6746   -0.9891 N.ar    1  UNL1        0.0000
     22 C          -0.6098    0.3678   -1.8093 C.ar    1  UNL1        0.0000
     23 C          -1.0334   -3.9108   -0.9036 C.3     1  UNL1        0.0000
     24 C          -1.6769    1.3556    0.5669 C.3     1  UNL1        0.0000
     25 C           1.1275    1.0486   -1.1140 C.3     1  UNL1        0.0000
     26 C          -1.2395    0.4996    0.4330 C.3     1  UNL1        0.0000
     27 C          -2.4995   -0.2629    0.1357 C.3     1  UNL1        0.0000
     28 C           1.8897   -0.7319    1.9054 C.3     1  UNL1        0.0000
     29 C           0.8805    0.5609    2.3078 C.3     1  UNL1        0.0000
     30 C          -1.6732   -1.6133    0.4523 C.3     1  UNL1        0.0000
     31 C          -0.3661    0.7649   -1.7033 C.ar    1  UNL1        0.0000
     32 N          -1.7530    2.7943    1.1007 N.ar    1  UNL1        0.0000
     33 N           0.4443    1.9090    2.0761 N.ar    1  UNL1        0.0000
     34 C          -0.1473    0.0300    1.2914 C.ar    1  UNL1        0.0000
     35 C           0.0498    1.1839   -0.0737 C.ar    1  UNL1        0.0000
     36 H          -2.1152    0.1760    2.9018 H       1  UNL1        0.0000
     37 H          -0.2079   -3.3383    1.6942 H       1  UNL1        0.0000
     38 H          -0.1465    1.5336    3.1149 H       1  UNL1        0.0000
     39 H          -0.2188   -2.5122   -2.4187 H       1  UNL1        0.0000
     40 H          -2.5135   -0.8120    1.3950 H       1  UNL1        0.0000
     41 H           2.2205   -2.1586    1.9643 H       1  UNL1        0.0000
     42 H          -2.5520   -0.4084   -1.2725 H       1  UNL1        0.0000
     43 H          -1.2635    2.4365   -3.7955 H       1  UNL1        0.0000
     44 H           2.2285    1.7133   -0.6622 H       1  UNL1        0.0000
     45 H           2.1455   -1.5033    0.1611 H       1  UNL1        0.0000
     46 H          -2.4671   -1.4305    2.4203 H       1  UNL1        0.0000
     47 H           0.3869   -1.2181   -3.6590 H       1  UNL1        0.0000
     48 H           3.6953   -0.4399   -2.0523 H       1  UNL1        0.0000
     49 H          -0.9615    0.7992    3.2601 H       1  UNL1        0.0000
     50 H          -0.9053   -1.9477    1.4870 H       1  UNL1        0.0000
     51 H          -1.8869   -1.5824   -1.3996 H       1  UNL1        0.0000
     52 H          -1.2728    3.2805   -0.4902 H       1  UNL1        0.0000
     53 H           0.2135   -3.5451   -1.6784 H       1  UNL1        0.0000
     54 H          -1.2321    2.1507   -0.4182 H       1  UNL1        0.0000
     55 H           0.7891   -1.4665   -0.7656 H       1  UNL1        0.0000
     56 H           2.8466    1.1462    1.0297 H       1  UNL1        0.0000
     57 H           0.9726   -2.1850   -3.0286 H       1  UNL1        0.0000
     58 H          -1.7293   -1.8062   -3.1238 H       1  UNL1        0.0000
     59 H           0.9760   -0.7756    2.1727 H       1  UNL1        0.0000
     60 H          -2.5229    2.2633   -0.1095 H       1  UNL1        0.0000
     61 H           0.7779    0.9604   -3.1964 H       1  UNL1        0.0000
     62 H           1.8748    1.9403   -3.2720 H       1  UNL1        0.0000
     63 H           1.2084    3.2189   -0.1901 H       1  UNL1        0.0000
     64 H           3.2420   -1.0276   -0.1259 H       1  UNL1        0.0000
     65 H          -1.3308   -3.1534    1.8886 H       1  UNL1        0.0000
     66 H          -1.6942    1.1642    2.3822 H       1  UNL1        0.0000
     67 H           2.3335    1.9164    1.7275 H       1  UNL1        0.0000
     68 EU          1.2636    1.8390    0.3070 Eu      1  UNL1        0.0000
@<TRIPOS>BOND
     1     1     2    2
     2     2     3   am
     3     3     4    1
     4     3     5    1
     5     5     6    1
     6     6     7    1
     7     2     8    1
     8     8     9   ar
     9     9    10   ar
    10     8    11   ar
    11    11    12   ar
    12    12    13   ar
    13    10    13   ar
    14    13    14   ar
    15    14    15   ar
    16    15    16   ar
    17    16    17   ar
    18    12    17   ar
    19    17    18   ar
    20    18    19   ar
    21    19    20    1
    22    20    21   ar
    23    21    22   ar
    24    22    23    1
    25    23    24    1
    26    23    25    1
    27    23    26    1
    28    26    27    1
    29    27    28    1
    30    28    29    1
    31    28    30    1
    32    22    31   ar
    33    28    31    1
    34    31    32   ar
    35    32    33   ar
    36    20    33   ar
    37    19    34   ar
    38    34    35   ar
    39    16    35   ar
    40     4    36    1
    41     4    37    1
    42     4    38    1
    43     5    39    1
    44     5    40    1
    45     6    41    1
    46     6    42    1
    47     7    43    1
    48     7    44    1
    49     7    45    1
    50     9    46    1
    51    10    47    1
    52    14    48    1
    53    15    49    1
    54    24    50    1
    55    24    51    1
    56    24    52    1
    57    25    53    1
    58    25    54    1
    59    25    55    1
    60    26    56    1
    61    26    57    1
    62    27    58    1
    63    27    59    1
    64    29    60    1
    65    29    61    1
    66    29    62    1
    67    30    63    1
    68    30    64    1
    69    30    65    1
    70    34    66    1
    71    35    67    1
    72    68     1    1
    73    68    33    1
    74    68    18    1
    75    68    11    1
@<TRIPOS>MOLECULE
*****
 68 75 0 0 0
SMALL
GASTEIGER

@<TRIPOS>ATOM
      1 O           1.2612   -0.3804   -1.0067 O.2     1  UNL1        0.0000
      2 C          -1.1927   -0.5387   -0.6190 C.2     1  UNL1        0.0000
      3 N          -1.1525   -0.9227    2.1986 N.am    1  UNL1        0.0000
      4 C          -1.2388   -0.6610    2.1961 C.3     1  UNL1        0.0000
      5 C          -0.8803   -0.8073    2.4627 C.3     1  UNL1        0.0000
      6 C           1.4356   -2.0642    2.8409 C.3     1  UNL1        0.0000
      7 C          -1.9554   -3.1365    0.2013 C.3     1  UNL1        0.0000
      8 C          -0.2489    2.4415    0.6302 C.ar    1  UNL1        0.0000
      9 C           1.6409    0.7763    1.0230 C.ar    1  UNL1        0.0000
     10 C          -0.0795   -0.0925   -3.8951 C.ar    1  UNL1        0.0000
     11 N           0.0030    2.6803   -0.1391 N.ar    1  UNL1        0.0000
     12 C           0.7221    2.2595   -2.0048 C.ar    1  UNL1        0.0000
     13 C          -1.6570    0.7643   -2.8628 C.ar    1  UNL1        0.0000
     14 C           0.3881   -2.3908    0.1227 C.ar    1  UNL1        0.0000
     15 C           0.3762   -2.3562    0.1523 C.ar    1  UNL1        0.0000
     16 C           0.4292   -0.8528   -2.2493 C.ar    1  UNL1        0.0000
     17 C           1.6462   -0.6361   -2.2335 C.ar    1  UNL1        0.0000
     18 N           0.8225   -0.5856    0.8159 N.ar    1  UNL1        0.0000
     19 C           0.1561   -0.9806    0.9962 C.ar    1  UNL1        0.0000
     20 C          -0.0006   -1.0527    1.1204 C.ar    1  UNL1        0.0000
     21 N          -1.7878    0.6746   -0.9891 N.ar    1  UNL1        0.0000
     22 C          -0.6098    0.3678   -1.8093 C.ar    1  UNL1        0.0000
     23 C          -1.0334   -3.9108   -0.9036 C.3     1  UNL1        0.0000
     24 C          -1.6769    1.3556    0.5669 C.3     1  UNL1        0.0000
     25 C           1.1275    1.0486   -1.1140 C.3     1  UNL1        0.0000
     26 C          -1.2395    0.4996    0.4330 C.3     1  UNL1        0.0000
     27 C          -2.4995   -0.2629    0.1357 C.3     1  UNL1        0.0000
     28 C           1.8897   -0.7319    1.9054 C.3     1  UNL1        0.0000
     29 C           0.8805    0.5609    2.3078 C.3     1  UNL1        0.0000
     30 C          -1.6732   -1.6133    0.4523 C.3     1  UNL1        0.0000
     31 C          -0.3661    0.7649   -1.7033 C.ar    1  UNL1        0.0000
     32 N          -1.7530    2.7943    1.1007 N.ar    1  UNL1        0.0000
     33 N           0.4443    1.9090    2.0761 N.ar    1  UNL1        0.0000
     34 C          -0.1473    0.0300    1.2914 C.ar    1  UNL1        0.0000
     35 C           0.0498    1.1839   -0.0737 C.ar    1  UNL1        0.0000
     36 H          -2.1152    0.1760    2.9018 H       1  UNL1        0.0000
     37 H          -0.2079   -3.3383    1.6942 H       1  UNL1        0.0000
     38 H          -0.1465    1.5336    3.1149 H       1  UNL1        0.0000
     39 H          -0.2188   -2.5122   -2.4187 H       1  UNL1        0.0000
     40 H          -2.5135   -0.8120    1.3950 H       1  UNL1        0.0000
     41 H           2.2205   -2.1586    1.9643 H       1  UNL1        0.0000
     42 H          -2.5520   -0.4084   -1.2725 H       1  UNL1        0.0000
     43 H          -1.2635    2.4365   -3.7955 H       1  UNL1        0.0000
     44 H           2.2285    1.7133   -0.6622 H       1  UNL1        0.0000
     45 H           2.1455   -1.5033    0.1611 H       1  UNL1        0.0000
     46 H          -2.4671   -1.4305    2.4203 H       1  UNL1        0.0000
     47 H           0.3869   -1.2181   -3.6590 H       1  UNL1        0.0000
     48 H           3.6953   -0.4399   -2.0523 H       1  UNL1        0.0000
     49 H          -0.9615    0.7992    3.2601 H       1  UNL1        0.0000
     50 H          -0.9053   -1.9477    1.4870 H       1  UNL1        0.0000
     51 H          -1.8869   -1.5824   -1.3996 H       1  UNL1        0.0000
     52 H          -1.2728    3.2805   -0.4902 H       1  UNL1        0.0000
     53 H           0.2135   -3.5451   -1.6784 H       1  UNL1        0.0000
     54 H          -1.2321    2.1507   -0.4182 H       1  UNL1        0.0000
     55 H           0.7891   -1.4665   -0.7656 H       1  UNL1        0.0000
     56 H           2.8466    1.1462    1.0297 H       1  UNL1        0.0000
     57 H           0.9726   -2.1850   -3.0286 H       1  UNL1        0.0000
     58 H          -1.7293   -1.8062   -3.1238 H       1  UNL1        0.0000
     59 H           0.9760   -0.7756    2.1727 H       1  UNL1        0.0000
     60 H          -2.5229    2.2633   -0.1095 H       1  UNL1        0.0000
     61 H           0.7779    0.9604   -3.1964 H       1  UNL1        0.0000
     62 H           1.8748    1.9403   -3.2720 H       1  UNL1        0.0000
     63 H           1.2084    3.2189   -0.1901 H       1  UNL1        0.0000
     64 H           3.2420   -1.0276   -0.1259 H       1  UNL1        0.0000
     65 H          -1.3308   -3.1534    1.8886 H       1  UNL1        0.0000
     66 H          -1.6942    1.1642    2.3822 H       1  UNL1        0.0000
     67 H           2.3335    1.9164    1.7275 H       1  UNL1        0.0000
     68 EU          1.2636    1.8390    0.3070 Eu      1  UNL1        0.0000
@<TRIPOS>BOND
     1     1     2    2
     2     2     3   am
     3     3     4    1
     4     3     5    1
     5     5     6    1
     6     6     7    1
     7     2     8    1
     8     8     9   ar
     9     9    10   ar
    10     8    11   ar
    11    11    12   ar
    12    12    13   ar
    13    10    13   ar
    14    13    14   ar
    15    14    15   ar
    16    15    16   ar
    17    16    17   ar
    18    12    17   ar
    19    17    18   ar
    20    18    19   ar
    21    19    20    1
    22    20    21   ar
    23    21    22   ar
    24    22    23    1
    25    23    24    1
    26    23    25    1
    27    23    26    1
    28    26    27    1
    29    27    28    1
    30    28    29    1
    31    28    30    1
    32    22    31   ar
    33    28    31    1
    34    31    32   ar
    35    32    33   ar
    36    20    33   ar
    37    19    34   ar
    38    34    35   ar
    39    16    35   ar
    40     4    36    1
    41     4    37    1
    42     4    38    1
    43     5    39    1
    44     5    40    1
    45     6    41    1
    46     6    42    1
    47     7    43    1
    48     7    44    1
    49     7    45    1
    50     9    46    1
    51    10    47    1
    52    14    48    1
    53    15    49    1
    54    24    50    1
    55    24    51    1
    56    24    52    1
    57    25    53    1
    58    25    54    1
    59    25    55    1
    60    26    56    1
    61    26    57    1
    62    27    58    1
    63    27    59    1
    64    29    60    1
    65    29    61    1
    66    29    62    1
    67    30    63    1
    68    30    64    1
    69    30    65    1
    70    34    66    1
    71    35    67    1
    72    68     1    1
    73    68    33    1
    74    68    18    1
    75    68    11    1
@<TRIPOS>MOLECULE
*****
 68 75 0 0 0
SMALL
GASTEIGER

@<TRIPOS>ATOM
      1 O           1.2612   -0.3804   -1.0067 O.2     1  UNL1        0.0000
      2 C          -1.1927   -0.5387   -0.6190 C.2     1  UNL1        0.0000
      3 N          -1.1525   -0.9227    2.1986 N.am    1  UNL1        0.0000
      4 C          -1.2388   -0.6610    2.1961 C.3     1  UNL1        0.0000
      5 C          -0.8803   -0.8073    2.4627 C.3     1  UNL1        0.0000
      6 C           1.4356   -2.0642    2.8409 C.3     1  UNL1        0.0000
      7 C          -1.9554   -3.1365    0.2013 C.3     1  UNL1        0.0000
      8 C          -0.2489    2.4415    0.6302 C.ar    1  UNL1        0.0000
      9 C           1.6409    0.7763    1.0230 C.ar    1  UNL1        0.0000
     10 C          -0.0795   -0.0925   -3.8951 C.ar    1  UNL1        0.0000
     11 N           0.0030    2.6803   -0.1391 N.ar    1  UNL1        0.0000
     12 C           0.7221    2.2595   -2.0048 C.ar    1  UNL1        0.0000
     13 C          -1.6570    0.7643   -2.8628 C.ar    1  UNL1        0.0000
     14 C           0.3881   -2.3908    0.1227 C.ar    1  UNL1        0.0000
     15 C           0.3762   -2.3562    0.1523 C.ar    1  UNL1        0.0000
     16 C           0.4292   -0.8528   -2.2493 C.ar    1  UNL1        0.0000
     17 C           1.6462   -0.6361   -2.2335 C.ar    1  UNL1        0.0000
     18 N           0.8225   -0.5856    0.8159 N.ar    1  UNL1        0.0000
     19 C           0.1561   -0.9806    0.9962 C.ar    1  UNL1        0.0000
     20 C          -0.0006   -1.0527    1.1204 C.ar    1  UNL1        0.0000
     21 N          -1.7878    0.6746   -0.9891 N.ar    1  UNL1        0.0000
     22 C          -0.6098    0.3678   -1.8093 C.ar    1  UNL1        0.0000
     23 C          -1.0334   -3.9108   -0.9036 C.3     1  UNL1        0.0000
     24 C          -1.6769    1.3556    0.5669 C.3     1  UNL1        0.0000
     25 C           1.1275    1.0486   -1.1140 C.3     1  UNL1        0.0000
     26 C          -1.2395    0.4996    0.4330 C.3     1  UNL1        0.0000
     27 C          -2.4995   -0.2629    0.1357 C.3     1  UNL1        0.0000
     28 C           1.8897   -0.7319    1.9054 C.3     1  UNL1        0.0000
     29 C           0.8805    0.5609    2.3078 C.3     1  UNL1        0.0000
     30 C          -1.6732   -1.6133    0.4523 C.3     1  UNL1        0.0000
     31 C          -0.3661    0.7649   -1.7033 C.ar    1  UNL1        0.0000
     32 N          -1.7530    2.7943    1.1007 N.ar    1  UNL1        0.0000
     33 N           0.4443    1.9090    2.0761 N.ar    1  UNL1        0.0000
     34 C          -0.1473    0.0300    1.2914 C.ar    1  UNL1        0.0000
     35 C           0.0498    1.1839   -0.0737 C.ar    1  UNL1        0.0000
     36 H          -2.1152    0.1760    2.9018 H       1  UNL1        0.0000
     37 H          -0.2079   -3.3383    1.6942 H       1  UNL1        0.0000
     38 H          -0.1465    1.5336    3.1149 H       1  UNL1        0.0000
     39 H          -0.2188   -2.5122   -2.4187 H       1  UNL1        0.0000
     40 H          -2.5135   -0.8120    1.3950 H       1  UNL1        0.0000
     41 H           2.2205   -2.1586    1.9643 H       1  UNL1        0.0000
     42 H          -2.5520   -0.4084   -1.2725 H       1  UNL1        0.0000
     43 H          -1.2635    2.4365   -3.7955 H       1  UNL1        0.0000
     44 H           2.2285    1.7133   -0.6622 H       1  UNL1        0.0000
     45 H           2.1455   -1.5033    0.1611 H       1  UNL1        0.0000
     46 H          -2.4671   -1.4305    2.4203 H       1  UNL1        0.0000
     47 H           0.3869   -1.2181   -3.6590 H       1  UNL1        0.0000
     48 H           3.6953   -0.4399   -2.0523 H       1  UNL1        0.0000
     49 H          -0.9615    0.7992    3.2601 H       1  UNL1        0.0000
     50 H          -0.9053   -1.9477    1.4870 H       1  UNL1        0.0000
     51 H          -1.8869   -1.5824   -1.3996 H       1  UNL1        0.0000
     52 H          -1.2728    3.2805   -0.4902 H       1  UNL1        0.0000
     53 H           0.2135   -3.5451   -1.6784 H       1  UNL1        0.0000
     54 H          -1.2321    2.1507   -0.4182 H       1  UNL1        0.0000
     55 H           0.7891   -1.4665   -0.7656 H       1  UNL1        0.0000
     56 H           2.8466    1.1462    1.0297 H       1  UNL1        0.0000
     57 H           0.9726   -2.1850   -3.0286 H       1  UNL1        0.0000
     58 H          -1.7293   -1.8062   -3.1238 H       1  UNL1        0.0000
     59 H           0.9760   -0.7756    2.1727 H       1  UNL1        0.0000
     60 H          -2.5229    2.2633   -0.1095 H       1  UNL1        0.0000
     61 H           0.7779    0.9604   -3.1964 H       1  UNL1        0.0000
     62 H           1.8748    1.9403   -3.2720 H       1  UNL1        0.0000
     63 H           1.2084    3.2189   -0.1901 H       1  UNL1        0.0000
     64 H           3.2420   -1.0276   -0.1259 H       1  UNL1        0.0000
     65 H          -1.3308   -3.1534    1.8886 H       1  UNL1        0.0000
     66 H          -1.6942    1.1642    2.3822 H       1  UNL1        0.0000
     67 H           2.3335    1.9164    1.7275 H       1  UNL1        0.0000
     68 EU          1.2636    1.8390    0.3070 Eu      1  UNL1        0.0000
@<TRIPOS>BOND
     1     1     2    2
     2     2     3   am
     3     3     4    1
     4     3     5    1
     5     5     6    1
     6     6     7    1
     7     2     8    1
     8     8     9   ar
     9     9    10   ar
    10     8    11   ar
    11    11    12   ar
    12    12    13   ar
    13    10    13   ar
    14    13    14   ar
    15    14    15   ar
    16    15    16   ar
    17    16    17   ar
    18    12    17   ar
    19    17    18   ar
    20    18    19   ar
    21    19    20    1
    22    20    21   ar
    23    21    22   ar
    24    22    23    1
    25    23    24    1
    26    23    25    1
    27    23    26    1
    28    26    27    1
    29    27    28    1
    30    28    29    1
    31    28    30    1
    32    22    31   ar
    33    28    31    1
    34    31    32   ar
    35    32    33   ar
    36    20    33   ar
    37    19    34   ar
    38    34    35   ar
    39    16    35   ar
    40     4    36    1
    41     4    37    1
    42     4    38    1
    43     5    39    1
    44     5    40    1
    45     6    41    1
    46     6    42    1
    47     7    43    1
    48     7    44    1
    49     7    45    1
    50     9    46    1
    51    10    47    1
    52    14    48    1
    53    15    49    1
    54    24    50    1
    55    24    51    1
    56    24    52    1
    57    25    53    1
    58    25    54    1
    59    25    55    1
    60    26    56    1
    61    26    57    1
    62    27    58    1
    63    27    59    1
    64    29    60    1
    65    29    61    1
    66    29    62    1
    67    30    63    1
    68    30    64    1
    69    30    65    1
    70    34    66    1
    71    35    67    1
    72    68     1    1
    73    68    33    1
    74    68    18    1
    75    68    11    1
@<TRIPOS>MOLECULE
*****
 68 75 0 0 0
SMALL
GASTEIGER

@<TRIPOS>ATOM
      1 O           1.2612   -0.3804   -1.0067 O.2     1  UNL1        0.0000
      2 C          -1.1927   -0.5387   -0.6190 C.2     1  UNL1        0.0000
      3 N          -1.1525   -0.9227    2.1986 N.am    1  UNL1        0.0000
      4 C          -1.2388   -0.6610    2.1961 C.3     1  UNL1        0.0000
      5 C          -0.8803   -0.8073    2.4627 C.3     1  UNL1        0.0000
      6 C           1.4356   -2.0642    2.8409 C.3     1  UNL1        0.0000
      7 C          -1.9554   -3.1365    0.2013 C.3     1  UNL1        0.0000
      8 C          -0.2489    2.4415    0.6302 C.ar    1  UNL1        0.0000
      9 C           1.6409    0.7763    1.0230 C.ar    1  UNL1        0.0000
     10 C          -0.0795   -0.0925   -3.8951 C.ar    1  UNL1        0.0000
     11 N           0.0030    2.6803   -0.1391 N.ar    1  UNL1        0.0000
     12 C           0.7221    2.2595   -2.0048 C.ar    1  UNL1        0.0000
     13 C          -1.6570    0.7643   -2.8628 C.ar    1  UNL1        0.0000
     14 C           0.3881   -2.3908    0.1227 C.ar    1  UNL1        0.0000
     15 C           0.3762   -2.3562    0.1523 C.ar    1  UNL1        0.0000
     16 C           0.4292   -0.8528   -2.2493 C.ar    1  UNL1        0.0000
     17 C           1.6462   -0.6361   -2.2335 C.ar    1  UNL1        0.0000
     18 N           0.8225   -0.5856    0.8159 N.ar    1  UNL1        0.0000
     19 C           0.1561   -0.9806    0.9962 C.ar    1  UNL1        0.0000
     20 C          -0.0006   -1.0527    1.1204 C.ar    1  UNL1        0.0000
     21 N          -1.7878    0.6746   -0.9891 N.ar    1  UNL1        0.0000
     22 C          -0.6098    0.3678   -1.8093 C.ar    1  UNL1        0.0000
     23 C          -1.0334   -3.9108   -0.9036 C.3     1  UNL1        0.0000
     24 C          -1.6769    1.3556    0.5669 C.3     1  UNL1        0.0000
     25 C           1.1275    1.0486   -1.1140 C.3     1  UNL1        0.0000
     26 C          -1.2395    0.4996    0.4330 C.3     1  UNL1        0.0000
     27 C          -2.4995   -0.2629    0.1357 C.3     1  UNL1        0.0000
     28 C           1.8897   -0.7319    1.9054 C.3     1  UNL1        0.0000
     29 C           0.8805    0.5609    2.3078 C.3     1  UNL1        0.0000
     30 C          -1.6732   -1.6133    0.4523 C.3     1  UNL1        0.0000
     31 C          -0.3661    0.7649   -1.7033 C.ar    1  UNL1        0.0000
     32 N          -1.7530    2.7943    1.1007 N.ar    1  UNL1        0.0000
     33 N           0.4443    1.9090    2.0761 N.ar    1  UNL1        0.0000
     34 C          -0.1473    0.0300    1.2914 C.ar    1  UNL1        0.0000
     35 C           0.0498    1.1839   -0.0737 C.ar    1  UNL1        0.0000
     36 H          -2.1152    0.1760    2.9018 H       1  UNL1        0.0000
     37 H          -0.2079   -3.3383    1.6942 H       1  UNL1        0.0000
     38 H          -0.1465    1.5336    3.1149 H       1  UNL1        0.0000
     39 H          -0.2188   -2.5122   -2.4187 H       1  UNL1        0.0000
     40 H          -2.5135   -0.8120    1.3950 H       1  UNL1        0.0000
     41 H           2.2205   -2.1586    1.9643 H       1  UNL1        0.0000
     42 H          -2.5520   -0.4084   -1.2725 H       1  UNL1        0.0000
     43 H          -1.2635    2.4365   -3.7955 H       1  UNL1        0.0000
     44 H           2.2285    1.7133   -0.6622 H       1  UNL1        0.0000
     45 H           2.1455   -1.5033    0.1611 H       1  UNL1        0.0000
     46 H          -2.4671   -1.4305    2.4203 H       1  UNL1        0.0000
     47 H           0.3869   -1.2181   -3.6590 H       1  UNL1        0.0000
     48 H           3.6953   -0.4399   -2.0523 H       1  UNL1        0.0000
     49 H          -0.9615    0.7992    3.2601 H       1  UNL1        0.0000
     50 H          -0.9053   -1.9477    1.4870 H       1  UNL1        0.0000
     51 H          -1.8869   -1.5824   -1.3996 H       1  UNL1        0.0000
     52 H          -1.2728    3.2805   -0.4902 H       1  UNL1        0.0000
     53 H           0.2135   -3.5451   -1.6784 H       1  UNL1        0.0000
     54 H          -1.2321    2.1507   -0.4182 H       1  UNL1        0.0000
     55 H           0.7891   -1.4665   -0.7656 H       1  UNL1        0.0000
     56 H           2.8466    1.1462    1.0297 H       1  UNL1        0.0000
     57 H           0.9726   -2.1850   -3.0286 H       1  UNL1        0.0000
     58 H          -1.7293   -1.8062   -3.1238 H       1  UNL1        0.0000
     59 H           0.9760   -0.7756    2.1727 H       1  UNL1        0.0000
     60 H          -2.5229    2.2633   -0.1095 H       1  UNL1        0.0000
     61 H           0.7779    0.9604   -3.1964 H       1  UNL1        0.0000
     62 H           1.8748    1.9403   -3.2720 H       1  UNL1        0.0000
     63 H           1.2084    3.2189   -0.1901 H       1  UNL1        0.0000
     64 H           3.2420   -1.0276   -0.1259 H       1  UNL1        0.0000
     65 H          -1.3308   -3.1534    1.8886 H       1  UNL1        0.0000
     66 H          -1.6942    1.1642    2.3822 H       1  UNL1        0.0000
     67 H           2.3335    1.9164    1.7275 H       1  UNL1        0.0000
     68 EU          1.2636    1.8390    0.3070 Eu      1  UNL1        0.0000
@<TRIPOS>BOND
     1     1     2    2
     2     2     3   am
     3     3     4    1
     4     3     5    1
     5     5     6    1
     6     6     7    1
     7     2     8    1
     8     8     9   ar
     9     9    10   ar
    10     8    11   ar
    11    11    12   ar
    12    12    13   ar
    13    10    13   ar
    14    13    14   ar
    15    14    15   ar
    16    15    16   ar
    17    16    17   ar
    18    12    17   ar
    19    17    18   ar
    20    18    19   ar
    21    19    20    1
    22    20    21   ar
    23    21    22   ar
    24    22    23    1
    25    23    24    1
    26    23    25    1
    27    23    26    1
    28    26    27    1
    29    27    28    1
    30    28    29    1
    31    28    30    1
    32    22    31   ar
    33    28    31    1
    34    31    32   ar
    35    32    33   ar
    36    20    33   ar
    37    19    34   ar
    38    34    35   ar
    39    16    35   ar
    40     4    36    1
    41     4    37    1
    42     4    38    1
    43     5    39    1
    44     5    40    1
    45     6    41    1
    46     6    42    1
    47     7    43    1
    48     7    44    1
    49     7    45    1
    50     9    46    1
    51    10    47    1
    52    14    48    1
    53    15    49    1
    54    24    50    1
    55    24    51    1
    56    24    52    1
    57    25    53    1
    58    25    54    1
    59    25    55    1
    60    26    56    1
    61    26    57    1
    62    27    58    1
    63    27    59    1
    64    29    60    1
    65    29    61    1
    66    29    62    1
    67    30    63    1
    68    30    64    1
    69    30    65    1
    70    34    66    1
    71    35    67    1
    72    68     1    1
    73    68    33    1
    74    68    18    1
    75    68    11    1
@<TRIPOS>MOLECULE
*****
 68 75 0 0 0
SMALL
GASTEIGER

@<TRIPOS>ATOM
      1 O           1.2612   -0.3804   -1.0067 O.2     1  UNL1        0.0000
      2 C          -1.1927   -0.5387   -0.6190 C.2     1  UNL1        0.0000
      3 N          -1.1525   -0.9227    2.1986 N.am    1  UNL1        0.0000
      4 C          -1.2388   -0.6610    2.1961 C.3     1  UNL1        0.0000
      5 C          -0.8803   -0.8073    2.4627 C.3     1  UNL1        0.0000
      6 C           1.4356   -2.0642    2.8409 C.3     1  UNL1        0.0000
      7 C          -1.9554   -3.1365    0.2013 C.3     1  UNL1        0.0000
      8 C          -0.2489    2.4415    0.6302 C.ar    1  UNL1        0.0000
      9 C           1.6409    0.7763    1.0230 C.ar    1  UNL1        0.0000
     10 C          -0.0795   -0.0925   -3.8951 C.ar    1  UNL1        0.0000
     11 N           0.0030    2.6803   -0.1391 N.ar    1  UNL1        0.0000
     12 C           0.7221    2.2595   -2.0048 C.ar    1  UNL1        0.0000
     13 C          -1.6570    0.7643   -2.8628 C.ar    1  UNL1        0.0000
     14 C           0.3881   -2.3908    0.1227 C.ar    1  UNL1        0.0000
     15 C           0.3762   -2.3562    0.1523 C.ar    1  UNL1        0.0000
     16 C           0.4292   -0.8528   -2.2493 C.ar    1  UNL1        0.0000
     17 C           1.6462   -0.6361   -2.2335 C.ar    1  UNL1        0.0000
     18 N           0.8225   -0.5856    0.8159 N.ar    1  UNL1        0.0000
     19 C           0.1561   -0.9806    0.9962 C.ar    1  UNL1        0.0000
     20 C          -0.0006   -1.0527    1.1204 C.ar    1  UNL1        0.0000
     21 N          -1.7878    0.6746   -0.9891 N.ar    1  UNL1        0.0000
     22 C          -0.6098    0.3678   -1.8093 C.ar    1  UNL1        0.0000
     23 C          -1.0334   -3.9108   -0.9036 C.3     1  UNL1        0.0000
     24 C          -1.6769    1.3556    0.5669 C.3     1  UNL1        0.0000
     25 C           1.1275    1.0486   -1.1140 C.3     1  UNL1        0.0000
     26 C          -1.2395    0.4996    0.4330 C.3     1  UNL1        0.0000
     27 C          -2.4995   -0.2629    0.1357 C.3     1  UNL1        0.0000
     28 C           1.8897   -0.7319    1.9054 C.3     1  UNL1        0.0000
     29 C           0.8805    0.5609    2.3078 C.3     1  UNL1        0.0000
     30 C          -1.6732   -1.6133    0.4523 C.3     1  UNL1        0.0000
     31 C          -0.3661    0.7649   -1.7033 C.ar    1  UNL1        0.0000
     32 N          -1.7530    2.7943    1.1007 N.ar    1  UNL1        0.0000
     33 N           0.4443    1.9090    2.0761 N.ar    1  UNL1        0.0000
     34 C          -0.1473    0.0300    1.2914 C.ar    1  UNL1        0.0000
     35 C           0.0498    1.1839   -0.0737 C.ar    1  UNL1        0.0000
     36 H          -2.1152    0.1760    2.9018 H       1  UNL1        0.0000
     37 H          -0.2079   -3.3383    1.6942 H       1  UNL1        0.0000
     38 H          -0.1465    1.5336    3.1149 H       1  UNL1        0.0000
     39 H          -0.2188   -2.5122   -2.4187 H       1  UNL1        0.0000
     40 H          -2.5135   -0.8120    1.3950 H       1  UNL1        0.0000
     41 H           2.2205   -2.1586    1.9643 H       1  UNL1        0.0000
     42 H          -2.5520   -0.4084   -1.2725 H       1  UNL1        0.0000
     43 H          -1.2635    2.4365   -3.7955 H       1  UNL1        0.0000
     44 H           2.2285    1.7133   -0.6622 H       1  UNL1        0.0000
     45 H           2.1455   -1.5033    0.1611 H       1  UNL1        0.0000
     46 H          -2.4671   -1.4305    2.4203 H       1  UNL1        0.0000
     47 H           0.3869   -1.2181   -3.6590 H       1  UNL1        0.0000
     48 H           3.6953   -0.4399   -2.0523 H       1  UNL1        0.0000
     49 H          -0.9615    0.7992    3.2601 H       1  UNL1        0.0000
     50 H          -0.9053   -1.9477    1.4870 H       1  UNL1        0.0000
     51 H          -1.8869   -1.5824   -1.3996 H       1  UNL1        0.0000
     52 H          -1.2728    3.2805   -0.4902 H       1  UNL1        0.0000
     53 H           0.2135   -3.5451   -1.6784 H       1  UNL1        0.0000
     54 H          -1.2321    2.1507   -0.4182 H       1  UNL1        0.0000
     55 H           0.7891   -1.4665   -0.7656 H       1  UNL1        0.0000
     56 H           2.8466    1.1462    1.0297 H       1  UNL1        0.0000
     57 H           0.9726   -2.1850   -3.0286 H       1  UNL1        0.0000
     58 H          -1.7293   -1.8062   -3.1238 H       1  UNL1        0.0000
     59 H           0.9760   -0.7756    2.1727 H       1  UNL1        0.0000
     60 H          -2.5229    2.2633   -0.1095 H       1  UNL1        0.0000
     61 H           0.7779    0.9604   -3.1964 H       1  UNL1        0.0000
     62 H           1.8748    1.9403   -3.2720 H       1  UNL1        0.0000
     63 H           1.2084    3.2189   -0.1901 H       1  UNL1        0.0000
     64 H           3.2420   -1.0276   -0.1259 H       1  UNL1        0.0000
     65 H          -1.3308   -3.1534    1.8886 H       1  UNL1        0.0000
     66 H          -1.6942    1.1642    2.3822 H       1  UNL1        0.0000
     67 H           2.3335    1.9164    1.7275 H       1  UNL1        0.0000
     68 EU          1.2636    1.8390    0.3070 Eu      1  UNL1        0.0000
@<TRIPOS>BOND
     1     1     2    2
     2     2     3   am
     3     3     4    1
     4     3     5    1
     5     5     6    1
     6     6     7    1
     7     2     8    1
     8     8     9   ar
     9     9    10   ar
    10     8    11   ar
    11    11    12   ar
    12    12    13   ar
    13    10    13   ar
    14    13    14   ar
    15    14    15   ar
    16    15    16   ar
    17    16    17   ar
    18    12    17   ar
    19    17    18   ar
    20    18    19   ar
    21    19    20    1
    22    20    21   ar
    23    21    22   ar
    24    22    23    1
    25    23    24    1
    26    23    25    1
    27    23    26    1
    28    26    27    1
    29    27    28    1
    30    28    29    1
    31    28    30    1
    32    22    31   ar
    33    28    31    1
    34    31    32   ar
    35    32    33   ar
    36    20    33   ar
    37    19    34   ar
    38    34    35   ar
    39    16    35   ar
    40     4    36    1
    41     4    37    1
    42     4    38    1
    43     5    39    1
    44     5    40    1
    45     6    41    1
    46     6    42    1
    47     7    43    1
    48     7    44    1
    49     7    45    1
    50     9    46    1
    51    10    47    1
    52    14    48    1
    53    15    49    1
    54    24    50    1
    55    24    51    1
    56    24    52    1
    57    25    53    1
    58    25    54    1
    59    25    55    1
    60    26    56    1
    61    26    57    1
    62    27    58    1
    63    27    59    1
    64    29    60    1
    65    29    61    1
    66    29    62    1
    67    30    63    1
    68    30    64    1
    69    30    65    1
    70    34    66    1
    71    35    67    1
    72    68     1    1
    73    68    33    1
    74    68    18    1
    75    68    11    1
@<TRIPOS>MOLECULE
*****
 68 75 0 0 0
SMALL
GASTEIGER

@<TRIPOS>ATOM
      1 O           0.7193   -0.4183   -1.3633 O.2     1  UNL1        0.0000
      2 C          -1.8866   -1.0360   -1.1598 C.2     1  UNL1        0.0000
      3 N          -0.4262   -0.6461    2.5909 N.am    1  UNL1        0.0000
      4 C          -2.2689   -1.2274    2.3739 C.3     1  UNL1        0.0000
      5 C          -0.5392   -1.2863    2.2629 C.3     1  UNL1        0.0000
      6 C           2.0389   -2.4947    2.6957 C.3     1  UNL1        0.0000
      7 C          -1.5620   -3.3617    0.1168 C.3     1  UNL1        0.0000
      8 C          -0.6472    2.6315    0.3662 C.ar    1  UNL1        0.0000
      9 C           1.9892    0.9530    1.1080 C.ar    1  UNL1        0.0000
     10 C          -0.2161    0.2832   -3.2846 C.ar    1  UNL1        0.0000
     11 N           0.3464    2.2577   -0.9194 N.ar    1  UNL1        0.0000
     12 C           1.2510    1.7936   -2.1863 C.ar    1  UNL1        0.0000
     13 C          -1.7715    1.6153   -2.9879 C.ar    1  UNL1        0.0000
     14 C           0.3034   -2.6414    0.5109 C.ar    1  UNL1        0.0000
     15 C          -0.2128   -1.8562    0.1108 C.ar    1  UNL1        0.0000
     16 C           1.0664   -0.1631   -2.7199 C.ar    1  UNL1        0.0000
     17 C           1.3071   -0.9691   -1.6127 C.ar    1  UNL1        0.0000
     18 N           0.3427   -0.9494    0.5442 N.ar    1  UNL1        0.0000
     19 C          -0.0704   -1.3502    0.9100 C.ar    1  UNL1        0.0000
     20 C          -0.4768   -0.1732    1.6204 C.ar    1  UNL1        0.0000
     21 N          -2.2155    1.2207   -0.0757 N.ar    1  UNL1        0.0000
     22 C          -1.1956    0.0739   -1.5068 C.ar    1  UNL1        0.0000
     23 C          -0.6941   -4.1182   -1.5875 C.3     1  UNL1        0.0000
     24 C          -0.8189    1.1492    0.4422 C.3     1  UNL1        0.0000
     25 C           0.7110    0.5364   -1.4945 C.3     1  UNL1        0.0000
     26 C          -0.7395   -0.1795    0.8742 C.3     1  UNL1        0.0000
     27 C          -2.8566   -0.5682    0.0823 C.3     1  UNL1        0.0000
     28 C           2.1109    0.0159    2.3150 C.3     1  UNL1        0.0000
     29 C           1.8070    1.1535    2.1359 C.3     1  UNL1        0.0000
     30 C          -1.9358   -2.0114    0.3260 C.3     1  UNL1        0.0000
     31 C          -0.7986    0.1187   -1.6369 C.ar    1  UNL1        0.0000
     32 N          -3.0205    3.0712    0.2675 N.ar    1  UNL1        0.0000
     33 N          -0.1520    1.4394    2.8158 N.ar    1  UNL1        0.0000
     34 C          -0.4023   -0.1389    1.5370 C.ar    1  UNL1        0.0000
     35 C           0.1220   -0.0473   -0.0007 C.ar    1  UNL1        0.0000
     36 H          -1.4165    0.4137    3.1198 H       1  UNL1        0.0000
     37 H          -0.9719   -4.0141    1.8473 H       1  UNL1        0.0000
     38 H          -0.2791    1.7386    3.1771 H       1  UNL1        0.0000
     39 H          -0.5060   -2.2009   -2.9728 H       1  UNL1        0.0000
     40 H          -2.8716   -0.7988    1.7604 H       1  UNL1        0.0000
     41 H           2.7845   -2.3579    2.5675 H       1  UNL1        0.0000
     42 H          -3.1151   -0.6067   -0.7465 H       1  UNL1        0.0000
     43 H          -0.7328    1.5126   -4.2772 H       1  UNL1        0.0000
     44 H           1.8050    1.7276   -1.4956 H       1  UNL1        0.0000
     45 H           1.3013   -1.4222    0.3667 H       1  UNL1        0.0000
     46 H          -1.9671   -0.9737    2.9062 H       1  UNL1        0.0000
     47 H           0.6870   -2.6274   -3.2507 H       1  UNL1        0.0000
     48 H           4.0224   -0.9154   -2.0193 H       1  UNL1        0.0000
     49 H          -0.5132    1.5116    4.0699 H       1  UNL1        0.0000
     50 H          -1.1008   -2.1744    1.8780 H       1  UNL1        0.0000
     51 H          -1.0677   -1.1914   -1.8220 H       1  UNL1        0.0000
     52 H          -0.9216    3.1509   -1.0658 H       1  UNL1        0.0000
     53 H           0.5292   -3.2780   -2.3678 H       1  UNL1        0.0000
     54 H          -0.9941    2.4113   -0.4021 H       1  UNL1        0.0000
     55 H           1.4740   -1.9145   -0.9723 H       1  UNL1        0.0000
     56 H           3.0307    0.6224    0.8029 H       1  UNL1        0.0000
     57 H           0.5808   -2.0209   -3.4520 H       1  UNL1        0.0000
     58 H          -1.6147   -1.8898   -3.4068 H       1  UNL1        0.0000
     59 H           0.2645   -0.9107    2.5702 H       1  UNL1        0.0000
     60 H          -2.7311    2.2922   -1.0709 H       1  UNL1        0.0000
     61 H           0.6256    1.0153   -3.6078 H       1  UNL1        0.0000
     62 H           1.8330    1.5032   -4.4572 H       1  UNL1        0.0000
     63 H           0.9068    3.6978   -0.5598 H       1  UNL1        0.0000
     64 H           2.6502   -0.5620   -0.3164 H       1  UNL1        0.0000
     65 H          -1.6593   -3.6766    1.9013 H       1  UNL1        0.0000
     66 H          -1.5722    1.2296    1.8327 H       1  UNL1        0.0000
     67 H           2.5189    1.4319    1.6530 H       1  UNL1        0.0000
     68 EU          1.5940    1.6262    0.4047 Eu      1  UNL1        0.0000
@<TRIPOS>BOND
     1     1     2    2
     2     2     3   am
     3     3     4    1
     4     3     5    1
     5     5     6    1
     6     6     7    1
     7     2     8    1
     8     8     9   ar
     9     9    10   ar
    10     8    11   ar
    11    11    12   ar
    12    12    13   ar
    13    10    13   ar
    14    13    14   ar
    15    14    15   ar
    16    15    16   ar
    17    16    17   ar
    18    12    17   ar
    19    17    18   ar
    20    18    19   ar
    21    19    20    1
    22    20    21   ar
    23    21    22   ar
    24    22    23    1
    25    23    24    1
    26    23    25    1
    27    23    26    1
    28    26    27    1
    29    27    28    1
    30    28    29    1
    31    28    30    1
    32    22    31   ar
    33    28    31    1
    34    31    32   ar
    35    32    33   ar
    36    20    33   ar
    37    19    34   ar
    38    34    35   ar
    39    16    35   ar
    40     4    36    1
    41     4    37    1
    42     4    38    1
    43     5    39    1
    44     5    40    1
    45     6    41    1
    46     6    42    1
    47     7    43    1
    48     7    44    1
    49     7    45    1
    50     9    46    1
    51    10    47    1
    52    14    48    1
    53    15    49    1
    54    24    50    1
    55    24    51    1
    56    24    52    1
    57    25    53    1
    58    25    54    1
    59    25    55    1
    60    26    56    1
    61    26    57    1
    62    27    58    1
    63    27    59    1
    64    29    60    1
    65    29    61    1
    66    29    62    1
    67    30    63    1
    68    30    64    1
    69    30    65    1
    70    34    66    1
    71    35    67    1
    72    68     1    1
    73    68    33    1
    74    68    18    1
    75    68    11    1
@<TRIPOS>MOLECULE
*****
 68 75 0 0 0
SMALL
GASTEIGER

@<TRIPOS>ATOM
      1 O           0.6998   -0.5706   -1.2148 O.2     1  UNL1        0.0000
      2 C          -1.7934   -0.2978   -0.7099 C.2     1  UNL1        0.0000
      3 N          -0.5803   -1.4851    2.9113 N.am    1  UNL1        0.0000
      4 C          -2.5788   -1.8156    2.7548 C.3     1  UNL1        0.0000
      5 C          -0.3668   -1.8496    2.8377 C.3     1  UNL1        0.0000
      6 C           2.0003   -2.4913    2.6739 C.3     1  UNL1        0.0000
      7 C          -1.6241   -3.5664    0.0821 C.3     1  UNL1        0.0000
      8 C          -0.3664    2.6641    0.5616 C.ar    1  UNL1        0.0000
      9 C           1.6716    0.7123    0.8411 C.ar    1  UNL1        0.0000
     10 C          -0.0744    0.1348   -4.0583 C.ar    1  UNL1        0.0000
     11 N           0.2069    2.7409   -0.6370 N.ar    1  UNL1        0.0000
     12 C           0.9601    2.3249   -2.2069 C.ar    1  UNL1        0.0000
     13 C          -1.4184    1.0812   -3.2081 C.ar    1  UNL1        0.0000
     14 C          -0.0831   -2.4395    0.0843 C.ar    1  UNL1        0.0000
     15 C          -0.2177   -2.4721    0.0656 C.ar    1  UNL1        0.0000
     16 C           0.2649   -1.2292   -2.3787 C.ar    1  UNL1        0.0000
     17 C           1.7473   -1.1926   -2.1585 C.ar    1  UNL1        0.0000
     18 N           0.6671   -0.7955    1.1046 N.ar    1  UNL1        0.0000
     19 C           0.1170   -0.8088    1.1204 C.ar    1  UNL1        0.0000
     20 C          -1.2377   -0.6207    1.7848 C.ar    1  UNL1        0.0000
     21 N          -2.4512    1.1801   -0.1662 N.ar    1  UNL1        0.0000
     22 C          -0.8895    0.2419   -1.8984 C.ar    1  UNL1        0.0000
     23 C          -0.6873   -4.0578   -1.5850 C.3     1  UNL1        0.0000
     24 C          -0.9684    1.0518    0.5294 C.3     1  UNL1        0.0000
     25 C           0.7746    0.7727   -1.8510 C.3     1  UNL1        0.0000
     26 C          -1.1565    0.3687    0.5058 C.3     1  UNL1        0.0000
     27 C          -2.9116   -0.5878    0.3925 C.3     1  UNL1        0.0000
     28 C           2.1190   -0.0648    2.3565 C.3     1  UNL1        0.0000
     29 C           1.6639    1.1897    2.4775 C.3     1  UNL1        0.0000
     30 C          -2.0141   -1.8522    0.3637 C.3     1  UNL1        0.0000
     31 C          -0.8724    0.2719   -1.9026 C.ar    1  UNL1        0.0000
     32 N          -2.5873    2.7951    0.3388 N.ar    1  UNL1        0.0000
     33 N          -0.2414    1.3389    2.5492 N.ar    1  UNL1        0.0000
     34 C           0.1846   -0.0822    1.2184 C.ar    1  UNL1        0.0000
     35 C           0.5066    1.1699   -0.2652 C.ar    1  UNL1        0.0000
     36 H          -1.4237    0.4273    3.1288 H       1  UNL1        0.0000
     37 H          -0.7397   -4.1240    1.8322 H       1  UNL1        0.0000
     38 H          -0.4323    2.2048    3.5893 H       1  UNL1        0.0000
     39 H          -0.5245   -2.2701   -2.9408 H       1  UNL1        0.0000
     40 H          -3.1813   -0.5828    1.7532 H       1  UNL1        0.0000
     41 H           2.7858   -2.3575    2.5667 H       1  UNL1        0.0000
     42 H          -3.2393   -0.6345   -1.0638 H       1  UNL1        0.0000
     43 H          -0.7111    1.5490   -4.3426 H       1  UNL1        0.0000
     44 H           2.0333    1.6421   -1.2525 H       1  UNL1        0.0000
     45 H           1.5482   -1.5246    0.2910 H       1  UNL1        0.0000
     46 H          -1.6895   -0.8998    3.4649 H       1  UNL1        0.0000
     47 H           0.7687   -2.9172   -3.3843 H       1  UNL1        0.0000
     48 H           4.1401   -1.0973   -1.8685 H       1  UNL1        0.0000
     49 H          -0.7222    1.1691    4.5321 H       1  UNL1        0.0000
     50 H          -1.2350   -2.2857    1.7050 H       1  UNL1        0.0000
     51 H          -1.0908   -1.3445   -1.8449 H       1  UNL1        0.0000
     52 H          -0.9828    3.3308   -1.1784 H       1  UNL1        0.0000
     53 H           0.4920   -3.3506   -2.1988 H       1  UNL1        0.0000
     54 H          -1.1886    2.1805   -0.6052 H       1  UNL1        0.0000
     55 H           1.4636   -1.9763   -0.9340 H       1  UNL1        0.0000
     56 H           3.1700    0.5846    0.7737 H       1  UNL1        0.0000
     57 H           0.5589   -1.7147   -3.6831 H       1  UNL1        0.0000
     58 H          -1.6690   -1.8707   -3.4148 H       1  UNL1        0.0000
     59 H           0.7449   -0.8538    2.5402 H       1  UNL1        0.0000
     60 H          -2.7247    2.3001   -1.1046 H       1  UNL1        0.0000
     61 H           0.7932    1.1886   -3.5378 H       1  UNL1        0.0000
     62 H           1.8326    1.5020   -4.4302 H       1  UNL1        0.0000
     63 H           0.9967    3.8283   -0.5200 H       1  UNL1        0.0000
     64 H           2.6364   -0.5670   -0.3160 H       1  UNL1        0.0000
     65 H          -1.9005   -3.5638    1.9204 H       1  UNL1        0.0000
     66 H          -1.6069    1.2372    1.8736 H       1  UNL1        0.0000
     67 H           2.8279    1.7488    1.4613 H       1  UNL1        0.0000
     68 EU          1.5460    1.9437    0.3291 Eu      1  UNL1        0.0000
@<TRIPOS>BOND
     1     1     2    2
     2     2     3   am
     3     3     4    1
     4     3     5    1
     5     5     6    1
     6     6     7    1
     7     2     8    1
     8     8     9   ar
     9     9    10   ar
    10     8    11   ar
    11    11    12   ar
    12    12    13   ar
    13    10    13   ar
    14    13    14   ar
    15    14    15   ar
    16    15    16   ar
    17    16    17   ar
    18    12    17   ar
    19    17    18   ar
    20    18    19   ar
    21    19    20    1
    22    20    21   ar
    23    21    22   ar
    24    22    23    1
    25    23    24    1
    26    23    25    1
    27    23    26    1
    28    26    27    1
    29    27    28    1
    30    28    29    1
    31    28    30    1
    32    22    31   ar
    33    28    31    1
    34    31    32   ar
    35    32    33   ar
    36    20    33   ar
    37    19    34   ar
    38    34    35   ar
    39    16    35   ar
    40     4    36    1
    41     4    37    1
    42     4    38    1
    43     5    39    1
    44     5    40    1
    45     6    41    1
    46     6    42    1
    47     7    43    1
    48     7    44    1
    49     7    45    1
    50     9    46    1
    51    10    47    1
    52    14    48    1
    53    15    49    1
    54    24    50    1
    55    24    51    1
    56    24    52    1
    57    25    53    1
    58    25    54    1
    59    25    55    1
    60    26    56    1
    61    26    57    1
    62    27    58    1
    63    27    59    1
    64    29    60    1
    65    29    61    1
    66    29    62    1
    67    30    63    1
    68    30    64    1
    69    30    65    1
    70    34    66    1
    71    35    67    1
    72    68     1    1
    73    68    33    1
    74    68    18    1
    75    68    11    1
@<TRIPOS>MOLECULE
*****
 68 75 0 0 0
SMALL
GASTEIGER

@<TRIPOS>ATOM
      1 O           0.7011   -0.5707   -1.2148 O.2     1  UNL1        0.0000
      2 C          -1.7947   -0.2884   -0.7075 C.2     1  UNL1        0.0000
      3 N          -0.5811   -1.4974    2.9097 N.am    1  UNL1        0.0000
      4 C          -2.5809   -1.8211    2.7604 C.3     1  UNL1        0.0000
      5 C          -0.3658   -1.8528    2.8408 C.3     1  UNL1        0.0000
      6 C           1.9980   -2.4911    2.6725 C.3     1  UNL1        0.0000
      7 C          -1.6248   -3.5688    0.0813 C.3     1  UNL1        0.0000
      8 C          -0.3639    2.6617    0.5639 C.ar    1  UNL1        0.0000
      9 C           1.6698    0.7128    0.8387 C.ar    1  UNL1        0.0000
     10 C          -0.0736    0.1345   -4.0663 C.ar    1  UNL1        0.0000
     11 N           0.2046    2.7451   -0.6262 N.ar    1  UNL1        0.0000
     12 C           0.9528    2.3280   -2.2111 C.ar    1  UNL1        0.0000
     13 C          -1.4218    1.0774   -3.2184 C.ar    1  UNL1        0.0000
     14 C          -0.0975   -2.4476    0.0829 C.ar    1  UNL1        0.0000
     15 C          -0.1963   -2.4704    0.0689 C.ar    1  UNL1        0.0000
     16 C           0.2640   -1.2388   -2.3757 C.ar    1  UNL1        0.0000
     17 C           1.7527   -1.1962   -2.1587 C.ar    1  UNL1        0.0000
     18 N           0.6801   -0.7907    1.1131 N.ar    1  UNL1        0.0000
     19 C           0.1178   -0.8027    1.1209 C.ar    1  UNL1        0.0000
     20 C          -1.2371   -0.6165    1.7857 C.ar    1  UNL1        0.0000
     21 N          -2.4603    1.1795   -0.1691 N.ar    1  UNL1        0.0000
     22 C          -0.8839    0.2465   -1.9001 C.ar    1  UNL1        0.0000
     23 C          -0.6869   -4.0540   -1.5850 C.3     1  UNL1        0.0000
     24 C          -0.9719    1.0463    0.5303 C.3     1  UNL1        0.0000
     25 C           0.7787    0.7703   -1.8613 C.3     1  UNL1        0.0000
     26 C          -1.1555    0.3871    0.5090 C.3     1  UNL1        0.0000
     27 C          -2.9163   -0.5910    0.3960 C.3     1  UNL1        0.0000
     28 C           2.1196   -0.0693    2.3565 C.3     1  UNL1        0.0000
     29 C           1.6628    1.1913    2.4796 C.3     1  UNL1        0.0000
     30 C          -2.0147   -1.8480    0.3640 C.3     1  UNL1        0.0000
     31 C          -0.8676    0.2741   -1.9039 C.ar    1  UNL1        0.0000
     32 N          -2.5831    2.7914    0.3402 N.ar    1  UNL1        0.0000
     33 N          -0.2485    1.3431    2.5465 N.ar    1  UNL1        0.0000
     34 C           0.1834   -0.0926    1.2192 C.ar    1  UNL1        0.0000
     35 C           0.5055    1.1725   -0.2711 C.ar    1  UNL1        0.0000
     36 H          -1.4245    0.4275    3.1296 H       1  UNL1        0.0000
     37 H          -0.7377   -4.1248    1.8322 H       1  UNL1        0.0000
     38 H          -0.4335    2.2087    3.5938 H       1  UNL1        0.0000
     39 H          -0.5269   -2.2760   -2.9411 H       1  UNL1        0.0000
     40 H          -3.1830   -0.5826    1.7622 H       1  UNL1        0.0000
     41 H           2.7859   -2.3575    2.5666 H       1  UNL1        0.0000
     42 H          -3.2414   -0.6356   -1.0670 H       1  UNL1        0.0000
     43 H          -0.7084    1.5518   -4.3477 H       1  UNL1        0.0000
     44 H           2.0345    1.6408   -1.2510 H       1  UNL1        0.0000
     45 H           1.5511   -1.5269    0.2903 H       1  UNL1        0.0000
     46 H          -1.6854   -0.9032    3.4727 H       1  UNL1        0.0000
     47 H           0.7685   -2.9211   -3.3912 H       1  UNL1        0.0000
     48 H           4.1438   -1.1042   -1.8622 H       1  UNL1        0.0000
     49 H          -0.7240    1.1670    4.5314 H       1  UNL1        0.0000
     50 H          -1.2364   -2.2874    1.7023 H       1  UNL1        0.0000
     51 H          -1.0954   -1.3472   -1.8429 H       1  UNL1        0.0000
     52 H          -0.9855    3.3341   -1.1807 H       1  UNL1        0.0000
     53 H           0.4916   -3.3507   -2.1963 H       1  UNL1        0.0000
     54 H          -1.1918    2.1776   -0.6078 H       1  UNL1        0.0000
     55 H           1.4630   -1.9792   -0.9330 H       1  UNL1        0.0000
     56 H           3.1726    0.5835    0.7730 H       1  UNL1        0.0000
     57 H           0.5598   -1.7126   -3.6897 H       1  UNL1        0.0000
     58 H          -1.6715   -1.8697   -3.4149 H       1  UNL1        0.0000
     59 H           0.7491   -0.8519    2.5452 H       1  UNL1        0.0000
     60 H          -2.7244    2.3011   -1.1067 H       1  UNL1        0.0000
     61 H           0.7963    1.1918   -3.5355 H       1  UNL1        0.0000
     62 H           1.8326    1.5019   -4.4285 H       1  UNL1        0.0000
     63 H           1.0008    3.8335   -0.5191 H       1  UNL1        0.0000
     64 H           2.6355   -0.5672   -0.3160 H       1  UNL1        0.0000
     65 H          -1.9033   -3.5630    1.9206 H       1  UNL1        0.0000
     66 H          -1.6099    1.2379    1.8764 H       1  UNL1        0.0000
     67 H           2.8308    1.7554    1.4564 H       1  UNL1        0.0000
     68 EU          1.5482    1.9503    0.3314 Eu      1  UNL1        0.0000
@<TRIPOS>BOND
     1     1     2    2
     2     2     3   am
     3     3     4    1
     4     3     5    1
     5     5     6    1
     6     6     7    1
     7     2     8    1
     8     8     9   ar
     9     9    10   ar
    10     8    11   ar
    11    11    12   ar
    12    12    13   ar
    13    10    13   ar
    14    13    14   ar
    15    14    15   ar
    16    15    16   ar
    17    16    17   ar
    18    12    17   ar
    19    17    18   ar
    20    18    19   ar
    21    19    20    1
    22    20    21   ar
    23    21    22   ar
    24    22    23    1
    25    23    24    1
    26    23    25    1
    27    23    26    1
    28    26    27    1
    29    27    28    1
    30    28    29    1
    31    28    30    1
    32    22    31   ar
    33    28    31    1
    34    31    32   ar
    35    32    33   ar
    36    20    33   ar
    37    19    34   ar
    38    34    35   ar
    39    16    35   ar
    40     4    36    1
    41     4    37    1
    42     4    38    1
    43     5    39    1
    44     5    40    1
    45     6    41    1
    46     6    42    1
    47     7    43    1
    48     7    44    1
    49     7    45    1
    50     9    46    1
    51    10    47    1
    52    14    48    1
    53    15    49    1
    54    24    50    1
    55    24    51    1
    56    24    52    1
    57    25    53    1
    58    25    54    1
    59    25    55    1
    60    26    56    1
    61    26    57    1
    62    27    58    1
    63    27    59    1
    64    29    60    1
    65    29    61    1
    66    29    62    1
    67    30    63    1
    68    30    64    1
    69    30    65    1
    70    34    66    1
    71    35    67    1
    72    68     1    1
    73    68    33    1
    74    68    18    1
    75    68    11    1
@<TRIPOS>MOLECULE
*****
 68 75 0 0 0
SMALL
GASTEIGER

@<TRIPOS>ATOM
      1 O           0.7011   -0.5707   -1.2148 O.2     1  UNL1        0.0000
      2 C          -1.7947   -0.2884   -0.7075 C.2     1  UNL1        0.0000
      3 N          -0.5811   -1.4974    2.9097 N.am    1  UNL1        0.0000
      4 C          -2.5809   -1.8211    2.7604 C.3     1  UNL1        0.0000
      5 C          -0.3658   -1.8528    2.8408 C.3     1  UNL1        0.0000
      6 C           1.9980   -2.4911    2.6725 C.3     1  UNL1        0.0000
      7 C          -1.6248   -3.5688    0.0813 C.3     1  UNL1        0.0000
      8 C          -0.3639    2.6617    0.5639 C.ar    1  UNL1        0.0000
      9 C           1.6698    0.7128    0.8387 C.ar    1  UNL1        0.0000
     10 C          -0.0736    0.1345   -4.0663 C.ar    1  UNL1        0.0000
     11 N           0.2046    2.7451   -0.6262 N.ar    1  UNL1        0.0000
     12 C           0.9528    2.3280   -2.2111 C.ar    1  UNL1        0.0000
     13 C          -1.4218    1.0774   -3.2184 C.ar    1  UNL1        0.0000
     14 C          -0.0975   -2.4476    0.0829 C.ar    1  UNL1        0.0000
     15 C          -0.1963   -2.4704    0.0689 C.ar    1  UNL1        0.0000
     16 C           0.2640   -1.2388   -2.3757 C.ar    1  UNL1        0.0000
     17 C           1.7527   -1.1962   -2.1587 C.ar    1  UNL1        0.0000
     18 N           0.6801   -0.7907    1.1131 N.ar    1  UNL1        0.0000
     19 C           0.1178   -0.8027    1.1209 C.ar    1  UNL1        0.0000
     20 C          -1.2371   -0.6165    1.7857 C.ar    1  UNL1        0.0000
     21 N          -2.4603    1.1795   -0.1691 N.ar    1  UNL1        0.0000
     22 C          -0.8839    0.2465   -1.9001 C.ar    1  UNL1        0.0000
     23 C          -0.6869   -4.0540   -1.5850 C.3     1  UNL1        0.0000
     24 C          -0.9719    1.0463    0.5303 C.3     1  UNL1        0.0000
     25 C           0.7787    0.7703   -1.8613 C.3     1  UNL1        0.0000
     26 C          -1.1555    0.3871    0.5090 C.3     1  UNL1        0.0000
     27 C          -2.9163   -0.5910    0.3960 C.3     1  UNL1        0.0000
     28 C           2.1196   -0.0693    2.3565 C.3     1  UNL1        0.0000
     29 C           1.6628    1.1913    2.4796 C.3     1  UNL1        0.0000
     30 C          -2.0147   -1.8480    0.3640 C.3     1  UNL1        0.0000
     31 C          -0.8676    0.2741   -1.9039 C.ar    1  UNL1        0.0000
     32 N          -2.5831    2.7914    0.3402 N.ar    1  UNL1        0.0000
     33 N          -0.2485    1.3431    2.5465 N.ar    1  UNL1        0.0000
     34 C           0.1834   -0.0926    1.2192 C.ar    1  UNL1        0.0000
     35 C           0.5055    1.1725   -0.2711 C.ar    1  UNL1        0.0000
     36 H          -1.4245    0.4275    3.1296 H       1  UNL1        0.0000
     37 H          -0.7377   -4.1248    1.8322 H       1  UNL1        0.0000
     38 H          -0.4335    2.2087    3.5938 H       1  UNL1        0.0000
     39 H          -0.5269   -2.2760   -2.9411 H       1  UNL1        0.0000
     40 H          -3.1830   -0.5826    1.7622 H       1  UNL1        0.0000
     41 H           2.7859   -2.3575    2.5666 H       1  UNL1        0.0000
     42 H          -3.2414   -0.6356   -1.0670 H       1  UNL1        0.0000
     43 H          -0.7084    1.5518   -4.3477 H       1  UNL1        0.0000
     44 H           2.0345    1.6408   -1.2510 H       1  UNL1        0.0000
     45 H           1.5511   -1.5269    0.2903 H       1  UNL1        0.0000
     46 H          -1.6854   -0.9032    3.4727 H       1  UNL1        0.0000
     47 H           0.7685   -2.9211   -3.3912 H       1  UNL1        0.0000
     48 H           4.1438   -1.1042   -1.8622 H       1  UNL1        0.0000
     49 H          -0.7240    1.1670    4.5314 H       1  UNL1        0.0000
     50 H          -1.2364   -2.2874    1.7023 H       1  UNL1        0.0000
     51 H          -1.0954   -1.3472   -1.8429 H       1  UNL1        0.0000
     52 H          -0.9855    3.3341   -1.1807 H       1  UNL1        0.0000
     53 H           0.4916   -3.3507   -2.1963 H       1  UNL1        0.0000
     54 H          -1.1918    2.1776   -0.6078 H       1  UNL1        0.0000
     55 H           1.4630   -1.9792   -0.9330 H       1  UNL1        0.0000
     56 H           3.1726    0.5835    0.7730 H       1  UNL1        0.0000
     57 H           0.5598   -1.7126   -3.6897 H       1  UNL1        0.0000
     58 H          -1.6715   -1.8697   -3.4149 H       1  UNL1        0.0000
     59 H           0.7491   -0.8519    2.5452 H       1  UNL1        0.0000
     60 H          -2.7244    2.3011   -1.1067 H       1  UNL1        0.0000
     61 H           0.7963    1.1918   -3.5355 H       1  UNL1        0.0000
     62 H           1.8326    1.5019   -4.4285 H       1  UNL1        0.0000
     63 H           1.0008    3.8335   -0.5191 H       1  UNL1        0.0000
     64 H           2.6355   -0.5672   -0.3160 H       1  UNL1        0.0000
     65 H          -1.9033   -3.5630    1.9206 H       1  UNL1        0.0000
     66 H          -1.6099    1.2379    1.8764 H       1  UNL1        0.0000
     67 H           2.8308    1.7554    1.4564 H       1  UNL1        0.0000
     68 EU          1.5482    1.9503    0.3314 Eu      1  UNL1        0.0000
@<TRIPOS>BOND
     1     1     2    2
     2     2     3   am
     3     3     4    1
     4     3     5    1
     5     5     6    1
     6     6     7    1
     7     2     8    1
     8     8     9   ar
     9     9    10   ar
    10     8    11   ar
    11    11    12   ar
    12    12    13   ar
    13    10    13   ar
    14    13    14   ar
    15    14    15   ar
    16    15    16   ar
    17    16    17   ar
    18    12    17   ar
    19    17    18   ar
    20    18    19   ar
    21    19    20    1
    22    20    21   ar
    23    21    22   ar
    24    22    23    1
    25    23    24    1
    26    23    25    1
    27    23    26    1
    28    26    27    1
    29    27    28    1
    30    28    29    1
    31    28    30    1
    32    22    31   ar
    33    28    31    1
    34    31    32   ar
    35    32    33   ar
    36    20    33   ar
    37    19    34   ar
    38    34    35   ar
    39    16    35   ar
    40     4    36    1
    41     4    37    1
    42     4    38    1
    43     5    39    1
    44     5    40    1
    45     6    41    1
    46     6    42    1
    47     7    43    1
    48     7    44    1
    49     7    45    1
    50     9    46    1
    51    10    47    1
    52    14    48    1
    53    15    49    1
    54    24    50    1
    55    24    51    1
    56    24    52    1
    57    25    53    1
    58    25    54    1
    59    25    55    1
    60    26    56    1
    61    26    57    1
    62    27    58    1
    63    27    59    1
    64    29    60    1
    65    29    61    1
    66    29    62    1
    67    30    63    1
    68    30    64    1
    69    30    65    1
    70    34    66    1
    71    35    67    1
    72    68     1    1
    73    68    33    1
    74    68    18    1
    75    68    11    1
@<TRIPOS>MOLECULE
*****
 68 75 0 0 0
SMALL
GASTEIGER

@<TRIPOS>ATOM
      1 O           0.7011   -0.5707   -1.2148 O.2     1  UNL1        0.0000
      2 C          -1.7947   -0.2884   -0.7075 C.2     1  UNL1        0.0000
      3 N          -0.5811   -1.4974    2.9097 N.am    1  UNL1        0.0000
      4 C          -2.5809   -1.8211    2.7604 C.3     1  UNL1        0.0000
      5 C          -0.3658   -1.8528    2.8408 C.3     1  UNL1        0.0000
      6 C           1.9980   -2.4911    2.6725 C.3     1  UNL1        0.0000
      7 C          -1.6248   -3.5688    0.0813 C.3     1  UNL1        0.0000
      8 C          -0.3639    2.6617    0.5639 C.ar    1  UNL1        0.0000
      9 C           1.6698    0.7128    0.8387 C.ar    1  UNL1        0.0000
     10 C          -0.0736    0.1345   -4.0663 C.ar    1  UNL1        0.0000
     11 N           0.2046    2.7451   -0.6262 N.ar    1  UNL1        0.0000
     12 C           0.9528    2.3280   -2.2111 C.ar    1  UNL1        0.0000
     13 C          -1.4218    1.0774   -3.2184 C.ar    1  UNL1        0.0000
     14 C          -0.0975   -2.4476    0.0829 C.ar    1  UNL1        0.0000
     15 C          -0.1963   -2.4704    0.0689 C.ar    1  UNL1        0.0000
     16 C           0.2640   -1.2388   -2.3757 C.ar    1  UNL1        0.0000
     17 C           1.7527   -1.1962   -2.1587 C.ar    1  UNL1        0.0000
     18 N           0.6801   -0.7907    1.1131 N.ar    1  UNL1        0.0000
     19 C           0.1178   -0.8027    1.1209 C.ar    1  UNL1        0.0000
     20 C          -1.2371   -0.6165    1.7857 C.ar    1  UNL1        0.0000
     21 N          -2.4603    1.1795   -0.1691 N.ar    1  UNL1        0.0000
     22 C          -0.8839    0.2465   -1.9001 C.ar    1  UNL1        0.0000
     23 C          -0.6869   -4.0540   -1.5850 C.3     1  UNL1        0.0000
     24 C          -0.9719    1.0463    0.5303 C.3     1  UNL1        0.0000
     25 C           0.7787    0.7703   -1.8613 C.3     1  UNL1        0.0000
     26 C          -1.1555    0.3871    0.5090 C.3     1  UNL1        0.0000
     27 C          -2.9163   -0.5910    0.3960 C.3     1  UNL1        0.0000
     28 C           2.1196   -0.0693    2.3565 C.3     1  UNL1        0.0000
     29 C           1.6628    1.1913    2.4796 C.3     1  UNL1        0.0000
     30 C          -2.0147   -1.8480    0.3640 C.3     1  UNL1        0.0000
     31 C          -0.8676    0.2741   -1.9039 C.ar    1  UNL1        0.0000
     32 N          -2.5831    2.7914    0.3402 N.ar    1  UNL1        0.0000
     33 N          -0.2485    1.3431    2.5465 N.ar    1  UNL1        0.0000
     34 C           0.1834   -0.0926    1.2192 C.ar    1  UNL1        0.0000
     35 C           0.5055    1.1725   -0.2711 C.ar    1  UNL1        0.0000
     36 H          -1.4245    0.4275    3.1296 H       1  UNL1        0.0000
     37 H          -0.7377   -4.1248    1.8322 H       1  UNL1        0.0000
     38 H          -0.4335    2.2087    3.5938 H       1  UNL1        0.0000
     39 H          -0.5269   -2.2760   -2.9411 H       1  UNL1        0.0000
     40 H          -3.1830   -0.5826    1.7622 H       1  UNL1        0.0000
     41 H           2.7859   -2.3575    2.5666 H       1  UNL1        0.0000
     42 H          -3.2414   -0.6356   -1.0670 H       1  UNL1        0.0000
     43 H          -0.7084    1.5518   -4.3477 H       1  UNL1        0.0000
     44 H           2.0345    1.6408   -1.2510 H       1  UNL1        0.0000
     45 H           1.5511   -1.5269    0.2903 H       1  UNL1        0.0000
     46 H          -1.6854   -0.9032    3.4727 H       1  UNL1        0.0000
     47 H           0.7685   -2.9211   -3.3912 H       1  UNL1        0.0000
     48 H           4.1438   -1.1042   -1.8622 H       1  UNL1        0.0000
     49 H          -0.7240    1.1670    4.5314 H       1  UNL1        0.0000
     50 H          -1.2364   -2.2874    1.7023 H       1  UNL1        0.0000
     51 H          -1.0954   -1.3472   -1.8429 H       1  UNL1        0.0000
     52 H          -0.9855    3.3341   -1.1807 H       1  UNL1        0.0000
     53 H           0.4916   -3.3507   -2.1963 H       1  UNL1        0.0000
     54 H          -1.1918    2.1776   -0.6078 H       1  UNL1        0.0000
     55 H           1.4630   -1.9792   -0.9330 H       1  UNL1        0.0000
     56 H           3.1726    0.5835    0.7730 H       1  UNL1        0.0000
     57 H           0.5598   -1.7126   -3.6897 H       1  UNL1        0.0000
     58 H          -1.6715   -1.8697   -3.4149 H       1  UNL1        0.0000
     59 H           0.7491   -0.8519    2.5452 H       1  UNL1        0.0000
     60 H          -2.7244    2.3011   -1.1067 H       1  UNL1        0.0000
     61 H           0.7963    1.1918   -3.5355 H       1  UNL1        0.0000
     62 H           1.8326    1.5019   -4.4285 H       1  UNL1        0.0000
     63 H           1.0008    3.8335   -0.5191 H       1  UNL1        0.0000
     64 H           2.6355   -0.5672   -0.3160 H       1  UNL1        0.0000
     65 H          -1.9033   -3.5630    1.9206 H       1  UNL1        0.0000
     66 H          -1.6099    1.2379    1.8764 H       1  UNL1        0.0000
     67 H           2.8308    1.7554    1.4564 H       1  UNL1        0.0000
     68 EU          1.5482    1.9503    0.3314 Eu      1  UNL1        0.0000
@<TRIPOS>BOND
     1     1     2    2
     2     2     3   am
     3     3     4    1
     4     3     5    1
     5     5     6    1
     6     6     7    1
     7     2     8    1
     8     8     9   ar
     9     9    10   ar
    10     8    11   ar
    11    11    12   ar
    12    12    13   ar
    13    10    13   ar
    14    13    14   ar
    15    14    15   ar
    16    15    16   ar
    17    16    17   ar
    18    12    17   ar
    19    17    18   ar
    20    18    19   ar
    21    19    20    1
    22    20    21   ar
    23    21    22   ar
    24    22    23    1
    25    23    24    1
    26    23    25    1
    27    23    26    1
    28    26    27    1
    29    27    28    1
    30    28    29    1
    31    28    30    1
    32    22    31   ar
    33    28    31    1
    34    31    32   ar
    35    32    33   ar
    36    20    33   ar
    37    19    34   ar
    38    34    35   ar
    39    16    35   ar
    40     4    36    1
    41     4    37    1
    42     4    38    1
    43     5    39    1
    44     5    40    1
    45     6    41    1
    46     6    42    1
    47     7    43    1
    48     7    44    1
    49     7    45    1
    50     9    46    1
    51    10    47    1
    52    14    48    1
    53    15    49    1
    54    24    50    1
    55    24    51    1
    56    24    52    1
    57    25    53    1
    58    25    54    1
    59    25    55    1
    60    26    56    1
    61    26    57    1
    62    27    58    1
    63    27    59    1
    64    29    60    1
    65    29    61    1
    66    29    62    1
    67    30    63    1
    68    30    64    1
    69    30    65    1
    70    34    66    1
    71    35    67    1
    72    68     1    1
    73    68    33    1
    74    68    18    1
    75    68    11    1
@<TRIPOS>MOLECULE
*****
 68 75 0 0 0
SMALL
GASTEIGER

@<TRIPOS>ATOM
      1 O           0.7011   -0.5707   -1.2148 O.2     1  UNL1        0.0000
      2 C          -1.7947   -0.2884   -0.7075 C.2     1  UNL1        0.0000
      3 N          -0.5811   -1.4974    2.9097 N.am    1  UNL1        0.0000
      4 C          -2.5809   -1.8211    2.7604 C.3     1  UNL1        0.0000
      5 C          -0.3658   -1.8528    2.8408 C.3     1  UNL1        0.0000
      6 C           1.9980   -2.4911    2.6725 C.3     1  UNL1        0.0000
      7 C          -1.6248   -3.5688    0.0813 C.3     1  UNL1        0.0000
      8 C          -0.3639    2.6617    0.5639 C.ar    1  UNL1        0.0000
      9 C           1.6698    0.7128    0.8387 C.ar    1  UNL1        0.0000
     10 C          -0.0736    0.1345   -4.0663 C.ar    1  UNL1        0.0000
     11 N           0.2046    2.7451   -0.6262 N.ar    1  UNL1        0.0000
     12 C           0.9528    2.3280   -2.2111 C.ar    1  UNL1        0.0000
     13 C          -1.4218    1.0774   -3.2184 C.ar    1  UNL1        0.0000
     14 C          -0.0975   -2.4476    0.0829 C.ar    1  UNL1        0.0000
     15 C          -0.1963   -2.4704    0.0689 C.ar    1  UNL1        0.0000
     16 C           0.2640   -1.2388   -2.3757 C.ar    1  UNL1        0.0000
     17 C           1.7527   -1.1962   -2.1587 C.ar    1  UNL1        0.0000
     18 N           0.6801   -0.7907    1.1131 N.ar    1  UNL1        0.0000
     19 C           0.1178   -0.8027    1.1209 C.ar    1  UNL1        0.0000
     20 C          -1.2371   -0.6165    1.7857 C.ar    1  UNL1        0.0000
     21 N          -2.4603    1.1795   -0.1691 N.ar    1  UNL1        0.0000
     22 C          -0.8839    0.2465   -1.9001 C.ar    1  UNL1        0.0000
     23 C          -0.6869   -4.0540   -1.5850 C.3     1  UNL1        0.0000
     24 C          -0.9719    1.0463    0.5303 C.3     1  UNL1        0.0000
     25 C           0.7787    0.7703   -1.8613 C.3     1  UNL1        0.0000
     26 C          -1.1555    0.3871    0.5090 C.3     1  UNL1        0.0000
     27 C          -2.9163   -0.5910    0.3960 C.3     1  UNL1        0.0000
     28 C           2.1196   -0.0693    2.3565 C.3     1  UNL1        0.0000
     29 C           1.6628    1.1913    2.4796 C.3     1  UNL1        0.0000
     30 C          -2.0147   -1.8480    0.3640 C.3     1  UNL1        0.0000
     31 C          -0.8676    0.2741   -1.9039 C.ar    1  UNL1        0.0000
     32 N          -2.5831    2.7914    0.3402 N.ar    1  UNL1        0.0000
     33 N          -0.2485    1.3431    2.5465 N.ar    1  UNL1        0.0000
     34 C           0.1834   -0.0926    1.2192 C.ar    1  UNL1        0.0000
     35 C           0.5055    1.1725   -0.2711 C.ar    1  UNL1        0.0000
     36 H          -1.4245    0.4275    3.1296 H       1  UNL1        0.0000
     37 H          -0.7377   -4.1248    1.8322 H       1  UNL1        0.0000
     38 H          -0.4335    2.2087    3.5938 H       1  UNL1        0.0000
     39 H          -0.5269   -2.2760   -2.9411 H       1  UNL1        0.0000
     40 H          -3.1830   -0.5826    1.7622 H       1  UNL1        0.0000
     41 H           2.7859   -2.3575    2.5666 H       1  UNL1        0.0000
     42 H          -3.2414   -0.6356   -1.0670 H       1  UNL1        0.0000
     43 H          -0.7084    1.5518   -4.3477 H       1  UNL1        0.0000
     44 H           2.0345    1.6408   -1.2510 H       1  UNL1        0.0000
     45 H           1.5511   -1.5269    0.2903 H       1  UNL1        0.0000
     46 H          -1.6854   -0.9032    3.4727 H       1  UNL1        0.0000
     47 H           0.7685   -2.9211   -3.3912 H       1  UNL1        0.0000
     48 H           4.1438   -1.1042   -1.8622 H       1  UNL1        0.0000
     49 H          -0.7240    1.1670    4.5314 H       1  UNL1        0.0000
     50 H          -1.2364   -2.2874    1.7023 H       1  UNL1        0.0000
     51 H          -1.0954   -1.3472   -1.8429 H       1  UNL1        0.0000
     52 H          -0.9855    3.3341   -1.1807 H       1  UNL1        0.0000
     53 H           0.4916   -3.3507   -2.1963 H       1  UNL1        0.0000
     54 H          -1.1918    2.1776   -0.6078 H       1  UNL1        0.0000
     55 H           1.4630   -1.9792   -0.9330 H       1  UNL1        0.0000
     56 H           3.1726    0.5835    0.7730 H       1  UNL1        0.0000
     57 H           0.5598   -1.7126   -3.6897 H       1  UNL1        0.0000
     58 H          -1.6715   -1.8697   -3.4149 H       1  UNL1        0.0000
     59 H           0.7491   -0.8519    2.5452 H       1  UNL1        0.0000
     60 H          -2.7244    2.3011   -1.1067 H       1  UNL1        0.0000
     61 H           0.7963    1.1918   -3.5355 H       1  UNL1        0.0000
     62 H           1.8326    1.5019   -4.4285 H       1  UNL1        0.0000
     63 H           1.0008    3.8335   -0.5191 H       1  UNL1        0.0000
     64 H           2.6355   -0.5672   -0.3160 H       1  UNL1        0.0000
     65 H          -1.9033   -3.5630    1.9206 H       1  UNL1        0.0000
     66 H          -1.6099    1.2379    1.8764 H       1  UNL1        0.0000
     67 H           2.8308    1.7554    1.4564 H       1  UNL1        0.0000
     68 EU          1.5482    1.9503    0.3314 Eu      1  UNL1        0.0000
@<TRIPOS>BOND
     1     1     2    2
     2     2     3   am
     3     3     4    1
     4     3     5    1
     5     5     6    1
     6     6     7    1
     7     2     8    1
     8     8     9   ar
     9     9    10   ar
    10     8    11   ar
    11    11    12   ar
    12    12    13   ar
    13    10    13   ar
    14    13    14   ar
    15    14    15   ar
    16    15    16   ar
    17    16    17   ar
    18    12    17   ar
    19    17    18   ar
    20    18    19   ar
    21    19    20    1
    22    20    21   ar
    23    21    22   ar
    24    22    23    1
    25    23    24    1
    26    23    25    1
    27    23    26    1
    28    26    27    1
    29    27    28    1
    30    28    29    1
    31    28    30    1
    32    22    31   ar
    33    28    31    1
    34    31    32   ar
    35    32    33   ar
    36    20    33   ar
    37    19    34   ar
    38    34    35   ar
    39    16    35   ar
    40     4    36    1
    41     4    37    1
    42     4    38    1
    43     5    39    1
    44     5    40    1
    45     6    41    1
    46     6    42    1
    47     7    43    1
    48     7    44    1
    49     7    45    1
    50     9    46    1
    51    10    47    1
    52    14    48    1
    53    15    49    1
    54    24    50    1
    55    24    51    1
    56    24    52    1
    57    25    53    1
    58    25    54    1
    59    25    55    1
    60    26    56    1
    61    26    57    1
    62    27    58    1
    63    27    59    1
    64    29    60    1
    65    29    61    1
    66    29    62    1
    67    30    63    1
    68    30    64    1
    69    30    65    1
    70    34    66    1
    71    35    67    1
    72    68     1    1
    73    68    33    1
    74    68    18    1
    75    68    11    1
@<TRIPOS>MOLECULE
*****
 68 75 0 0 0
SMALL
GASTEIGER

@<TRIPOS>ATOM
      1 O           0.7011   -0.5707   -1.2148 O.2     1  UNL1        0.0000
      2 C          -1.7947   -0.2884   -0.7075 C.2     1  UNL1        0.0000
      3 N          -0.5811   -1.4974    2.9097 N.am    1  UNL1        0.0000
      4 C          -2.5809   -1.8211    2.7604 C.3     1  UNL1        0.0000
      5 C          -0.3658   -1.8528    2.8408 C.3     1  UNL1        0.0000
      6 C           1.9980   -2.4911    2.6725 C.3     1  UNL1        0.0000
      7 C          -1.6248   -3.5688    0.0813 C.3     1  UNL1        0.0000
      8 C          -0.3639    2.6617    0.5639 C.ar    1  UNL1        0.0000
      9 C           1.6698    0.7128    0.8387 C.ar    1  UNL1        0.0000
     10 C          -0.0736    0.1345   -4.0663 C.ar    1  UNL1        0.0000
     11 N           0.2046    2.7451   -0.6262 N.ar    1  UNL1        0.0000
     12 C           0.9528    2.3280   -2.2111 C.ar    1  UNL1        0.0000
     13 C          -1.4218    1.0774   -3.2184 C.ar    1  UNL1        0.0000
     14 C          -0.0975   -2.4476    0.0829 C.ar    1  UNL1        0.0000
     15 C          -0.1963   -2.4704    0.0689 C.ar    1  UNL1        0.0000
     16 C           0.2640   -1.2388   -2.3757 C.ar    1  UNL1        0.0000
     17 C           1.7527   -1.1962   -2.1587 C.ar    1  UNL1        0.0000
     18 N           0.6801   -0.7907    1.1131 N.ar    1  UNL1        0.0000
     19 C           0.1178   -0.8027    1.1209 C.ar    1  UNL1        0.0000
     20 C          -1.2371   -0.6165    1.7857 C.ar    1  UNL1        0.0000
     21 N          -2.4603    1.1795   -0.1691 N.ar    1  UNL1        0.0000
     22 C          -0.8839    0.2465   -1.9001 C.ar    1  UNL1        0.0000
     23 C          -0.6869   -4.0540   -1.5850 C.3     1  UNL1        0.0000
     24 C          -0.9719    1.0463    0.5303 C.3     1  UNL1        0.0000
     25 C           0.7787    0.7703   -1.8613 C.3     1  UNL1        0.0000
     26 C          -1.1555    0.3871    0.5090 C.3     1  UNL1        0.0000
     27 C          -2.9163   -0.5910    0.3960 C.3     1  UNL1        0.0000
     28 C           2.1196   -0.0693    2.3565 C.3     1  UNL1        0.0000
     29 C           1.6628    1.1913    2.4796 C.3     1  UNL1        0.0000
     30 C          -2.0147   -1.8480    0.3640 C.3     1  UNL1        0.0000
     31 C          -0.8676    0.2741   -1.9039 C.ar    1  UNL1        0.0000
     32 N          -2.5831    2.7914    0.3402 N.ar    1  UNL1        0.0000
     33 N          -0.2485    1.3431    2.5465 N.ar    1  UNL1        0.0000
     34 C           0.1834   -0.0926    1.2192 C.ar    1  UNL1        0.0000
     35 C           0.5055    1.1725   -0.2711 C.ar    1  UNL1        0.0000
     36 H          -1.4245    0.4275    3.1296 H       1  UNL1        0.0000
     37 H          -0.7377   -4.1248    1.8322 H       1  UNL1        0.0000
     38 H          -0.4335    2.2087    3.5938 H       1  UNL1        0.0000
     39 H          -0.5269   -2.2760   -2.9411 H       1  UNL1        0.0000
     40 H          -3.1830   -0.5826    1.7622 H       1  UNL1        0.0000
     41 H           2.7859   -2.3575    2.5666 H       1  UNL1        0.0000
     42 H          -3.2414   -0.6356   -1.0670 H       1  UNL1        0.0000
     43 H          -0.7084    1.5518   -4.3477 H       1  UNL1        0.0000
     44 H           2.0345    1.6408   -1.2510 H       1  UNL1        0.0000
     45 H           1.5511   -1.5269    0.2903 H       1  UNL1        0.0000
     46 H          -1.6854   -0.9032    3.4727 H       1  UNL1        0.0000
     47 H           0.7685   -2.9211   -3.3912 H       1  UNL1        0.0000
     48 H           4.1438   -1.1042   -1.8622 H       1  UNL1        0.0000
     49 H          -0.7240    1.1670    4.5314 H       1  UNL1        0.0000
     50 H          -1.2364   -2.2874    1.7023 H       1  UNL1        0.0000
     51 H          -1.0954   -1.3472   -1.8429 H       1  UNL1        0.0000
     52 H          -0.9855    3.3341   -1.1807 H       1  UNL1        0.0000
     53 H           0.4916   -3.3507   -2.1963 H       1  UNL1        0.0000
     54 H          -1.1918    2.1776   -0.6078 H       1  UNL1        0.0000
     55 H           1.4630   -1.9792   -0.9330 H       1  UNL1        0.0000
     56 H           3.1726    0.5835    0.7730 H       1  UNL1        0.0000
     57 H           0.5598   -1.7126   -3.6897 H       1  UNL1        0.0000
     58 H          -1.6715   -1.8697   -3.4149 H       1  UNL1        0.0000
     59 H           0.7491   -0.8519    2.5452 H       1  UNL1        0.0000
     60 H          -2.7244    2.3011   -1.1067 H       1  UNL1        0.0000
     61 H           0.7963    1.1918   -3.5355 H       1  UNL1        0.0000
     62 H           1.8326    1.5019   -4.4285 H       1  UNL1        0.0000
     63 H           1.0008    3.8335   -0.5191 H       1  UNL1        0.0000
     64 H           2.6355   -0.5672   -0.3160 H       1  UNL1        0.0000
     65 H          -1.9033   -3.5630    1.9206 H       1  UNL1        0.0000
     66 H          -1.6099    1.2379    1.8764 H       1  UNL1        0.0000
     67 H           2.8308    1.7554    1.4564 H       1  UNL1        0.0000
     68 EU          1.5482    1.9503    0.3314 Eu      1  UNL1        0.0000
@<TRIPOS>BOND
     1     1     2    2
     2     2     3   am
     3     3     4    1
     4     3     5    1
     5     5     6    1
     6     6     7    1
     7     2     8    1
     8     8     9   ar
     9     9    10   ar
    10     8    11   ar
    11    11    12   ar
    12    12    13   ar
    13    10    13   ar
    14    13    14   ar
    15    14    15   ar
    16    15    16   ar
    17    16    17   ar
    18    12    17   ar
    19    17    18   ar
    20    18    19   ar
    21    19    20    1
    22    20    21   ar
    23    21    22   ar
    24    22    23    1
    25    23    24    1
    26    23    25    1
    27    23    26    1
    28    26    27    1
    29    27    28    1
    30    28    29    1
    31    28    30    1
    32    22    31   ar
    33    28    31    1
    34    31    32   ar
    35    32    33   ar
    36    20    33   ar
    37    19    34   ar
    38    34    35   ar
    39    16    35   ar
    40     4    36    1
    41     4    37    1
    42     4    38    1
    43     5    39    1
    44     5    40    1
    45     6    41    1
    46     6    42    1
    47     7    43    1
    48     7    44    1
    49     7    45    1
    50     9    46    1
    51    10    47    1
    52    14    48    1
    53    15    49    1
    54    24    50    1
    55    24    51    1
    56    24    52    1
    57    25    53    1
    58    25    54    1
    59    25    55    1
    60    26    56    1
    61    26    57    1
    62    27    58    1
    63    27    59    1
    64    29    60    1
    65    29    61    1
    66    29    62    1
    67    30    63    1
    68    30    64    1
    69    30    65    1
    70    34    66    1
    71    35    67    1
    72    68     1    1
    73    68    33    1
    74    68    18    1
    75    68    11    1
@<TRIPOS>MOLECULE
*****
 68 75 0 0 0
SMALL
GASTEIGER

@<TRIPOS>ATOM
      1 O           0.7011   -0.5707   -1.2148 O.2     1  UNL1        0.0000
      2 C          -1.7947   -0.2884   -0.7075 C.2     1  UNL1        0.0000
      3 N          -0.5811   -1.4974    2.9097 N.am    1  UNL1        0.0000
      4 C          -2.5809   -1.8211    2.7604 C.3     1  UNL1        0.0000
      5 C          -0.3658   -1.8528    2.8408 C.3     1  UNL1        0.0000
      6 C           1.9980   -2.4911    2.6725 C.3     1  UNL1        0.0000
      7 C          -1.6248   -3.5688    0.0813 C.3     1  UNL1        0.0000
      8 C          -0.3639    2.6617    0.5639 C.ar    1  UNL1        0.0000
      9 C           1.6698    0.7128    0.8387 C.ar    1  UNL1        0.0000
     10 C          -0.0736    0.1345   -4.0663 C.ar    1  UNL1        0.0000
     11 N           0.2046    2.7451   -0.6262 N.ar    1  UNL1        0.0000
     12 C           0.9528    2.3280   -2.2111 C.ar    1  UNL1        0.0000
     13 C          -1.4218    1.0774   -3.2184 C.ar    1  UNL1        0.0000
     14 C          -0.0975   -2.4476    0.0829 C.ar    1  UNL1        0.0000
     15 C          -0.1963   -2.4704    0.0689 C.ar    1  UNL1        0.0000
     16 C           0.2640   -1.2388   -2.3757 C.ar    1  UNL1        0.0000
     17 C           1.7527   -1.1962   -2.1587 C.ar    1  UNL1        0.0000
     18 N           0.6801   -0.7907    1.1131 N.ar    1  UNL1        0.0000
     19 C           0.1178   -0.8027    1.1209 C.ar    1  UNL1        0.0000
     20 C          -1.2371   -0.6165    1.7857 C.ar    1  UNL1        0.0000
     21 N          -2.4603    1.1795   -0.1691 N.ar    1  UNL1        0.0000
     22 C          -0.8839    0.2465   -1.9001 C.ar    1  UNL1        0.0000
     23 C          -0.6869   -4.0540   -1.5850 C.3     1  UNL1        0.0000
     24 C          -0.9719    1.0463    0.5303 C.3     1  UNL1        0.0000
     25 C           0.7787    0.7703   -1.8613 C.3     1  UNL1        0.0000
     26 C          -1.1555    0.3871    0.5090 C.3     1  UNL1        0.0000
     27 C          -2.9163   -0.5910    0.3960 C.3     1  UNL1        0.0000
     28 C           2.1196   -0.0693    2.3565 C.3     1  UNL1        0.0000
     29 C           1.6628    1.1913    2.4796 C.3     1  UNL1        0.0000
     30 C          -2.0147   -1.8480    0.3640 C.3     1  UNL1        0.0000
     31 C          -0.8676    0.2741   -1.9039 C.ar    1  UNL1        0.0000
     32 N          -2.5831    2.7914    0.3402 N.ar    1  UNL1        0.0000
     33 N          -0.2485    1.3431    2.5465 N.ar    1  UNL1        0.0000
     34 C           0.1834   -0.0926    1.2192 C.ar    1  UNL1        0.0000
     35 C           0.5055    1.1725   -0.2711 C.ar    1  UNL1        0.0000
     36 H          -1.4245    0.4275    3.1296 H       1  UNL1        0.0000
     37 H          -0.7377   -4.1248    1.8322 H       1  UNL1        0.0000
     38 H          -0.4335    2.2087    3.5938 H       1  UNL1        0.0000
     39 H          -0.5269   -2.2760   -2.9411 H       1  UNL1        0.0000
     40 H          -3.1830   -0.5826    1.7622 H       1  UNL1        0.0000
     41 H           2.7859   -2.3575    2.5666 H       1  UNL1        0.0000
     42 H          -3.2414   -0.6356   -1.0670 H       1  UNL1        0.0000
     43 H          -0.7084    1.5518   -4.3477 H       1  UNL1        0.0000
     44 H           2.0345    1.6408   -1.2510 H       1  UNL1        0.0000
     45 H           1.5511   -1.5269    0.2903 H       1  UNL1        0.0000
     46 H          -1.6854   -0.9032    3.4727 H       1  UNL1        0.0000
     47 H           0.7685   -2.9211   -3.3912 H       1  UNL1        0.0000
     48 H           4.1438   -1.1042   -1.8622 H       1  UNL1        0.0000
     49 H          -0.7240    1.1670    4.5314 H       1  UNL1        0.0000
     50 H          -1.2364   -2.2874    1.7023 H       1  UNL1        0.0000
     51 H          -1.0954   -1.3472   -1.8429 H       1  UNL1        0.0000
     52 H          -0.9855    3.3341   -1.1807 H       1  UNL1        0.0000
     53 H           0.4916   -3.3507   -2.1963 H       1  UNL1        0.0000
     54 H          -1.1918    2.1776   -0.6078 H       1  UNL1        0.0000
     55 H           1.4630   -1.9792   -0.9330 H       1  UNL1        0.0000
     56 H           3.1726    0.5835    0.7730 H       1  UNL1        0.0000
     57 H           0.5598   -1.7126   -3.6897 H       1  UNL1        0.0000
     58 H          -1.6715   -1.8697   -3.4149 H       1  UNL1        0.0000
     59 H           0.7491   -0.8519    2.5452 H       1  UNL1        0.0000
     60 H          -2.7244    2.3011   -1.1067 H       1  UNL1        0.0000
     61 H           0.7963    1.1918   -3.5355 H       1  UNL1        0.0000
     62 H           1.8326    1.5019   -4.4285 H       1  UNL1        0.0000
     63 H           1.0008    3.8335   -0.5191 H       1  UNL1        0.0000
     64 H           2.6355   -0.5672   -0.3160 H       1  UNL1        0.0000
     65 H          -1.9033   -3.5630    1.9206 H       1  UNL1        0.0000
     66 H          -1.6099    1.2379    1.8764 H       1  UNL1        0.0000
     67 H           2.8308    1.7554    1.4564 H       1  UNL1        0.0000
     68 EU          1.5482    1.9503    0.3314 Eu      1  UNL1        0.0000
@<TRIPOS>BOND
     1     1     2    2
     2     2     3   am
     3     3     4    1
     4     3     5    1
     5     5     6    1
     6     6     7    1
     7     2     8    1
     8     8     9   ar
     9     9    10   ar
    10     8    11   ar
    11    11    12   ar
    12    12    13   ar
    13    10    13   ar
    14    13    14   ar
    15    14    15   ar
    16    15    16   ar
    17    16    17   ar
    18    12    17   ar
    19    17    18   ar
    20    18    19   ar
    21    19    20    1
    22    20    21   ar
    23    21    22   ar
    24    22    23    1
    25    23    24    1
    26    23    25    1
    27    23    26    1
    28    26    27    1
    29    27    28    1
    30    28    29    1
    31    28    30    1
    32    22    31   ar
    33    28    31    1
    34    31    32   ar
    35    32    33   ar
    36    20    33   ar
    37    19    34   ar
    38    34    35   ar
    39    16    35   ar
    40     4    36    1
    41     4    37    1
    42     4    38    1
    43     5    39    1
    44     5    40    1
    45     6    41    1
    46     6    42    1
    47     7    43    1
    48     7    44    1
    49     7    45    1
    50     9    46    1
    51    10    47    1
    52    14    48    1
    53    15    49    1
    54    24    50    1
    55    24    51    1
    56    24    52    1
    57    25    53    1
    58    25    54    1
    59    25    55    1
    60    26    56    1
    61    26    57    1
    62    27    58    1
    63    27    59    1
    64    29    60    1
    65    29    61    1
    66    29    62    1
    67    30    63    1
    68    30    64    1
    69    30    65    1
    70    34    66    1
    71    35    67    1
    72    68     1    1
    73    68    33    1
    74    68    18    1
    75    68    11    1
@<TRIPOS>MOLECULE
*****
 68 75 0 0 0
SMALL
GASTEIGER

@<TRIPOS>ATOM
      1 O           0.7011   -0.5707   -1.2148 O.2     1  UNL1        0.0000
      2 C          -1.7947   -0.2884   -0.7075 C.2     1  UNL1        0.0000
      3 N          -0.5811   -1.4974    2.9097 N.am    1  UNL1        0.0000
      4 C          -2.5809   -1.8211    2.7604 C.3     1  UNL1        0.0000
      5 C          -0.3658   -1.8528    2.8408 C.3     1  UNL1        0.0000
      6 C           1.9980   -2.4911    2.6725 C.3     1  UNL1        0.0000
      7 C          -1.6248   -3.5688    0.0813 C.3     1  UNL1        0.0000
      8 C          -0.3639    2.6617    0.5639 C.ar    1  UNL1        0.0000
      9 C           1.6698    0.7128    0.8387 C.ar    1  UNL1        0.0000
     10 C          -0.0736    0.1345   -4.0663 C.ar    1  UNL1        0.0000
     11 N           0.2046    2.7451   -0.6262 N.ar    1  UNL1        0.0000
     12 C           0.9528    2.3280   -2.2111 C.ar    1  UNL1        0.0000
     13 C          -1.4218    1.0774   -3.2184 C.ar    1  UNL1        0.0000
     14 C          -0.0975   -2.4476    0.0829 C.ar    1  UNL1        0.0000
     15 C          -0.1963   -2.4704    0.0689 C.ar    1  UNL1        0.0000
     16 C           0.2640   -1.2388   -2.3757 C.ar    1  UNL1        0.0000
     17 C           1.7527   -1.1962   -2.1587 C.ar    1  UNL1        0.0000
     18 N           0.6801   -0.7907    1.1131 N.ar    1  UNL1        0.0000
     19 C           0.1178   -0.8027    1.1209 C.ar    1  UNL1        0.0000
     20 C          -1.2371   -0.6165    1.7857 C.ar    1  UNL1        0.0000
     21 N          -2.4603    1.1795   -0.1691 N.ar    1  UNL1        0.0000
     22 C          -0.8839    0.2465   -1.9001 C.ar    1  UNL1        0.0000
     23 C          -0.6869   -4.0540   -1.5850 C.3     1  UNL1        0.0000
     24 C          -0.9719    1.0463    0.5303 C.3     1  UNL1        0.0000
     25 C           0.7787    0.7703   -1.8613 C.3     1  UNL1        0.0000
     26 C          -1.1555    0.3871    0.5090 C.3     1  UNL1        0.0000
     27 C          -2.9163   -0.5910    0.3960 C.3     1  UNL1        0.0000
     28 C           2.1196   -0.0693    2.3565 C.3     1  UNL1        0.0000
     29 C           1.6628    1.1913    2.4796 C.3     1  UNL1        0.0000
     30 C          -2.0147   -1.8480    0.3640 C.3     1  UNL1        0.0000
     31 C          -0.8676    0.2741   -1.9039 C.ar    1  UNL1        0.0000
     32 N          -2.5831    2.7914    0.3402 N.ar    1  UNL1        0.0000
     33 N          -0.2485    1.3431    2.5465 N.ar    1  UNL1        0.0000
     34 C           0.1834   -0.0926    1.2192 C.ar    1  UNL1        0.0000
     35 C           0.5055    1.1725   -0.2711 C.ar    1  UNL1        0.0000
     36 H          -1.4245    0.4275    3.1296 H       1  UNL1        0.0000
     37 H          -0.7377   -4.1248    1.8322 H       1  UNL1        0.0000
     38 H          -0.4335    2.2087    3.5938 H       1  UNL1        0.0000
     39 H          -0.5269   -2.2760   -2.9411 H       1  UNL1        0.0000
     40 H          -3.1830   -0.5826    1.7622 H       1  UNL1        0.0000
     41 H           2.7859   -2.3575    2.5666 H       1  UNL1        0.0000
     42 H          -3.2414   -0.6356   -1.0670 H       1  UNL1        0.0000
     43 H          -0.7084    1.5518   -4.3477 H       1  UNL1        0.0000
     44 H           2.0345    1.6408   -1.2510 H       1  UNL1        0.0000
     45 H           1.5511   -1.5269    0.2903 H       1  UNL1        0.0000
     46 H          -1.6854   -0.9032    3.4727 H       1  UNL1        0.0000
     47 H           0.7685   -2.9211   -3.3912 H       1  UNL1        0.0000
     48 H           4.1438   -1.1042   -1.8622 H       1  UNL1        0.0000
     49 H          -0.7240    1.1670    4.5314 H       1  UNL1        0.0000
     50 H          -1.2364   -2.2874    1.7023 H       1  UNL1        0.0000
     51 H          -1.0954   -1.3472   -1.8429 H       1  UNL1        0.0000
     52 H          -0.9855    3.3341   -1.1807 H       1  UNL1        0.0000
     53 H           0.4916   -3.3507   -2.1963 H       1  UNL1        0.0000
     54 H          -1.1918    2.1776   -0.6078 H       1  UNL1        0.0000
     55 H           1.4630   -1.9792   -0.9330 H       1  UNL1        0.0000
     56 H           3.1726    0.5835    0.7730 H       1  UNL1        0.0000
     57 H           0.5598   -1.7126   -3.6897 H       1  UNL1        0.0000
     58 H          -1.6715   -1.8697   -3.4149 H       1  UNL1        0.0000
     59 H           0.7491   -0.8519    2.5452 H       1  UNL1        0.0000
     60 H          -2.7244    2.3011   -1.1067 H       1  UNL1        0.0000
     61 H           0.7963    1.1918   -3.5355 H       1  UNL1        0.0000
     62 H           1.8326    1.5019   -4.4285 H       1  UNL1        0.0000
     63 H           1.0008    3.8335   -0.5191 H       1  UNL1        0.0000
     64 H           2.6355   -0.5672   -0.3160 H       1  UNL1        0.0000
     65 H          -1.9033   -3.5630    1.9206 H       1  UNL1        0.0000
     66 H          -1.6099    1.2379    1.8764 H       1  UNL1        0.0000
     67 H           2.8308    1.7554    1.4564 H       1  UNL1        0.0000
     68 EU          1.5482    1.9503    0.3314 Eu      1  UNL1        0.0000
@<TRIPOS>BOND
     1     1     2    2
     2     2     3   am
     3     3     4    1
     4     3     5    1
     5     5     6    1
     6     6     7    1
     7     2     8    1
     8     8     9   ar
     9     9    10   ar
    10     8    11   ar
    11    11    12   ar
    12    12    13   ar
    13    10    13   ar
    14    13    14   ar
    15    14    15   ar
    16    15    16   ar
    17    16    17   ar
    18    12    17   ar
    19    17    18   ar
    20    18    19   ar
    21    19    20    1
    22    20    21   ar
    23    21    22   ar
    24    22    23    1
    25    23    24    1
    26    23    25    1
    27    23    26    1
    28    26    27    1
    29    27    28    1
    30    28    29    1
    31    28    30    1
    32    22    31   ar
    33    28    31    1
    34    31    32   ar
    35    32    33   ar
    36    20    33   ar
    37    19    34   ar
    38    34    35   ar
    39    16    35   ar
    40     4    36    1
    41     4    37    1
    42     4    38    1
    43     5    39    1
    44     5    40    1
    45     6    41    1
    46     6    42    1
    47     7    43    1
    48     7    44    1
    49     7    45    1
    50     9    46    1
    51    10    47    1
    52    14    48    1
    53    15    49    1
    54    24    50    1
    55    24    51    1
    56    24    52    1
    57    25    53    1
    58    25    54    1
    59    25    55    1
    60    26    56    1
    61    26    57    1
    62    27    58    1
    63    27    59    1
    64    29    60    1
    65    29    61    1
    66    29    62    1
    67    30    63    1
    68    30    64    1
    69    30    65    1
    70    34    66    1
    71    35    67    1
    72    68     1    1
    73    68    33    1
    74    68    18    1
    75    68    11    1
@<TRIPOS>MOLECULE
*****
 68 75 0 0 0
SMALL
GASTEIGER

@<TRIPOS>ATOM
      1 O           0.7011   -0.5707   -1.2148 O.2     1  UNL1        0.0000
      2 C          -1.7947   -0.2884   -0.7075 C.2     1  UNL1        0.0000
      3 N          -0.5811   -1.4974    2.9097 N.am    1  UNL1        0.0000
      4 C          -2.5809   -1.8211    2.7604 C.3     1  UNL1        0.0000
      5 C          -0.3658   -1.8528    2.8408 C.3     1  UNL1        0.0000
      6 C           1.9980   -2.4911    2.6725 C.3     1  UNL1        0.0000
      7 C          -1.6248   -3.5688    0.0813 C.3     1  UNL1        0.0000
      8 C          -0.3639    2.6617    0.5639 C.ar    1  UNL1        0.0000
      9 C           1.6698    0.7128    0.8387 C.ar    1  UNL1        0.0000
     10 C          -0.0736    0.1345   -4.0663 C.ar    1  UNL1        0.0000
     11 N           0.2046    2.7451   -0.6262 N.ar    1  UNL1        0.0000
     12 C           0.9528    2.3280   -2.2111 C.ar    1  UNL1        0.0000
     13 C          -1.4218    1.0774   -3.2184 C.ar    1  UNL1        0.0000
     14 C          -0.0975   -2.4476    0.0829 C.ar    1  UNL1        0.0000
     15 C          -0.1963   -2.4704    0.0689 C.ar    1  UNL1        0.0000
     16 C           0.2640   -1.2388   -2.3757 C.ar    1  UNL1        0.0000
     17 C           1.7527   -1.1962   -2.1587 C.ar    1  UNL1        0.0000
     18 N           0.6801   -0.7907    1.1131 N.ar    1  UNL1        0.0000
     19 C           0.1178   -0.8027    1.1209 C.ar    1  UNL1        0.0000
     20 C          -1.2371   -0.6165    1.7857 C.ar    1  UNL1        0.0000
     21 N          -2.4603    1.1795   -0.1691 N.ar    1  UNL1        0.0000
     22 C          -0.8839    0.2465   -1.9001 C.ar    1  UNL1        0.0000
     23 C          -0.6869   -4.0540   -1.5850 C.3     1  UNL1        0.0000
     24 C          -0.9719    1.0463    0.5303 C.3     1  UNL1        0.0000
     25 C           0.7787    0.7703   -1.8613 C.3     1  UNL1        0.0000
     26 C          -1.1555    0.3871    0.5090 C.3     1  UNL1        0.0000
     27 C          -2.9163   -0.5910    0.3960 C.3     1  UNL1        0.0000
     28 C           2.1196   -0.0693    2.3565 C.3     1  UNL1        0.0000
     29 C           1.6628    1.1913    2.4796 C.3     1  UNL1        0.0000
     30 C          -2.0147   -1.8480    0.3640 C.3     1  UNL1        0.0000
     31 C          -0.8676    0.2741   -1.9039 C.ar    1  UNL1        0.0000
     32 N          -2.5831    2.7914    0.3402 N.ar    1  UNL1        0.0000
     33 N          -0.2485    1.3431    2.5465 N.ar    1  UNL1        0.0000
     34 C           0.1834   -0.0926    1.2192 C.ar    1  UNL1        0.0000
     35 C           0.5055    1.1725   -0.2711 C.ar    1  UNL1        0.0000
     36 H          -1.4245    0.4275    3.1296 H       1  UNL1        0.0000
     37 H          -0.7377   -4.1248    1.8322 H       1  UNL1        0.0000
     38 H          -0.4335    2.2087    3.5938 H       1  UNL1        0.0000
     39 H          -0.5269   -2.2760   -2.9411 H       1  UNL1        0.0000
     40 H          -3.1830   -0.5826    1.7622 H       1  UNL1        0.0000
     41 H           2.7859   -2.3575    2.5666 H       1  UNL1        0.0000
     42 H          -3.2414   -0.6356   -1.0670 H       1  UNL1        0.0000
     43 H          -0.7084    1.5518   -4.3477 H       1  UNL1        0.0000
     44 H           2.0345    1.6408   -1.2510 H       1  UNL1        0.0000
     45 H           1.5511   -1.5269    0.2903 H       1  UNL1        0.0000
     46 H          -1.6854   -0.9032    3.4727 H       1  UNL1        0.0000
     47 H           0.7685   -2.9211   -3.3912 H       1  UNL1        0.0000
     48 H           4.1438   -1.1042   -1.8622 H       1  UNL1        0.0000
     49 H          -0.7240    1.1670    4.5314 H       1  UNL1        0.0000
     50 H          -1.2364   -2.2874    1.7023 H       1  UNL1        0.0000
     51 H          -1.0954   -1.3472   -1.8429 H       1  UNL1        0.0000
     52 H          -0.9855    3.3341   -1.1807 H       1  UNL1        0.0000
     53 H           0.4916   -3.3507   -2.1963 H       1  UNL1        0.0000
     54 H          -1.1918    2.1776   -0.6078 H       1  UNL1        0.0000
     55 H           1.4630   -1.9792   -0.9330 H       1  UNL1        0.0000
     56 H           3.1726    0.5835    0.7730 H       1  UNL1        0.0000
     57 H           0.5598   -1.7126   -3.6897 H       1  UNL1        0.0000
     58 H          -1.6715   -1.8697   -3.4149 H       1  UNL1        0.0000
     59 H           0.7491   -0.8519    2.5452 H       1  UNL1        0.0000
     60 H          -2.7244    2.3011   -1.1067 H       1  UNL1        0.0000
     61 H           0.7963    1.1918   -3.5355 H       1  UNL1        0.0000
     62 H           1.8326    1.5019   -4.4285 H       1  UNL1        0.0000
     63 H           1.0008    3.8335   -0.5191 H       1  UNL1        0.0000
     64 H           2.6355   -0.5672   -0.3160 H       1  UNL1        0.0000
     65 H          -1.9033   -3.5630    1.9206 H       1  UNL1        0.0000
     66 H          -1.6099    1.2379    1.8764 H       1  UNL1        0.0000
     67 H           2.8308    1.7554    1.4564 H       1  UNL1        0.0000
     68 EU          1.5482    1.9503    0.3314 Eu      1  UNL1        0.0000
@<TRIPOS>BOND
     1     1     2    2
     2     2     3   am
     3     3     4    1
     4     3     5    1
     5     5     6    1
     6     6     7    1
     7     2     8    1
     8     8     9   ar
     9     9    10   ar
    10     8    11   ar
    11    11    12   ar
    12    12    13   ar
    13    10    13   ar
    14    13    14   ar
    15    14    15   ar
    16    15    16   ar
    17    16    17   ar
    18    12    17   ar
    19    17    18   ar
    20    18    19   ar
    21    19    20    1
    22    20    21   ar
    23    21    22   ar
    24    22    23    1
    25    23    24    1
    26    23    25    1
    27    23    26    1
    28    26    27    1
    29    27    28    1
    30    28    29    1
    31    28    30    1
    32    22    31   ar
    33    28    31    1
    34    31    32   ar
    35    32    33   ar
    36    20    33   ar
    37    19    34   ar
    38    34    35   ar
    39    16    35   ar
    40     4    36    1
    41     4    37    1
    42     4    38    1
    43     5    39    1
    44     5    40    1
    45     6    41    1
    46     6    42    1
    47     7    43    1
    48     7    44    1
    49     7    45    1
    50     9    46    1
    51    10    47    1
    52    14    48    1
    53    15    49    1
    54    24    50    1
    55    24    51    1
    56    24    52    1
    57    25    53    1
    58    25    54    1
    59    25    55    1
    60    26    56    1
    61    26    57    1
    62    27    58    1
    63    27    59    1
    64    29    60    1
    65    29    61    1
    66    29    62    1
    67    30    63    1
    68    30    64    1
    69    30    65    1
    70    34    66    1
    71    35    67    1
    72    68     1    1
    73    68    33    1
    74    68    18    1
    75    68    11    1
@<TRIPOS>MOLECULE
*****
 68 75 0 0 0
SMALL
GASTEIGER

@<TRIPOS>ATOM
      1 O           0.7011   -0.5707   -1.2148 O.2     1  UNL1        0.0000
      2 C          -1.7947   -0.2884   -0.7075 C.2     1  UNL1        0.0000
      3 N          -0.5811   -1.4974    2.9097 N.am    1  UNL1        0.0000
      4 C          -2.5809   -1.8211    2.7604 C.3     1  UNL1        0.0000
      5 C          -0.3658   -1.8528    2.8408 C.3     1  UNL1        0.0000
      6 C           1.9980   -2.4911    2.6725 C.3     1  UNL1        0.0000
      7 C          -1.6248   -3.5688    0.0813 C.3     1  UNL1        0.0000
      8 C          -0.3639    2.6617    0.5639 C.ar    1  UNL1        0.0000
      9 C           1.6698    0.7128    0.8387 C.ar    1  UNL1        0.0000
     10 C          -0.0736    0.1345   -4.0663 C.ar    1  UNL1        0.0000
     11 N           0.2046    2.7451   -0.6262 N.ar    1  UNL1        0.0000
     12 C           0.9528    2.3280   -2.2111 C.ar    1  UNL1        0.0000
     13 C          -1.4218    1.0774   -3.2184 C.ar    1  UNL1        0.0000
     14 C          -0.0975   -2.4476    0.0829 C.ar    1  UNL1        0.0000
     15 C          -0.1963   -2.4704    0.0689 C.ar    1  UNL1        0.0000
     16 C           0.2640   -1.2388   -2.3757 C.ar    1  UNL1        0.0000
     17 C           1.7527   -1.1962   -2.1587 C.ar    1  UNL1        0.0000
     18 N           0.6801   -0.7907    1.1131 N.ar    1  UNL1        0.0000
     19 C           0.1178   -0.8027    1.1209 C.ar    1  UNL1        0.0000
     20 C          -1.2371   -0.6165    1.7857 C.ar    1  UNL1        0.0000
     21 N          -2.4603    1.1795   -0.1691 N.ar    1  UNL1        0.0000
     22 C          -0.8839    0.2465   -1.9001 C.ar    1  UNL1        0.0000
     23 C          -0.6869   -4.0540   -1.5850 C.3     1  UNL1        0.0000
     24 C          -0.9719    1.0463    0.5303 C.3     1  UNL1        0.0000
     25 C           0.7787    0.7703   -1.8613 C.3     1  UNL1        0.0000
     26 C          -1.1555    0.3871    0.5090 C.3     1  UNL1        0.0000
     27 C          -2.9163   -0.5910    0.3960 C.3     1  UNL1        0.0000
     28 C           2.1196   -0.0693    2.3565 C.3     1  UNL1        0.0000
     29 C           1.6628    1.1913    2.4796 C.3     1  UNL1        0.0000
     30 C          -2.0147   -1.8480    0.3640 C.3     1  UNL1        0.0000
     31 C          -0.8676    0.2741   -1.9039 C.ar    1  UNL1        0.0000
     32 N          -2.5831    2.7914    0.3402 N.ar    1  UNL1        0.0000
     33 N          -0.2485    1.3431    2.5465 N.ar    1  UNL1        0.0000
     34 C           0.1834   -0.0926    1.2192 C.ar    1  UNL1        0.0000
     35 C           0.5055    1.1725   -0.2711 C.ar    1  UNL1        0.0000
     36 H          -1.4245    0.4275    3.1296 H       1  UNL1        0.0000
     37 H          -0.7377   -4.1248    1.8322 H       1  UNL1        0.0000
     38 H          -0.4335    2.2087    3.5938 H       1  UNL1        0.0000
     39 H          -0.5269   -2.2760   -2.9411 H       1  UNL1        0.0000
     40 H          -3.1830   -0.5826    1.7622 H       1  UNL1        0.0000
     41 H           2.7859   -2.3575    2.5666 H       1  UNL1        0.0000
     42 H          -3.2414   -0.6356   -1.0670 H       1  UNL1        0.0000
     43 H          -0.7084    1.5518   -4.3477 H       1  UNL1        0.0000
     44 H           2.0345    1.6408   -1.2510 H       1  UNL1        0.0000
     45 H           1.5511   -1.5269    0.2903 H       1  UNL1        0.0000
     46 H          -1.6854   -0.9032    3.4727 H       1  UNL1        0.0000
     47 H           0.7685   -2.9211   -3.3912 H       1  UNL1        0.0000
     48 H           4.1438   -1.1042   -1.8622 H       1  UNL1        0.0000
     49 H          -0.7240    1.1670    4.5314 H       1  UNL1        0.0000
     50 H          -1.2364   -2.2874    1.7023 H       1  UNL1        0.0000
     51 H          -1.0954   -1.3472   -1.8429 H       1  UNL1        0.0000
     52 H          -0.9855    3.3341   -1.1807 H       1  UNL1        0.0000
     53 H           0.4916   -3.3507   -2.1963 H       1  UNL1        0.0000
     54 H          -1.1918    2.1776   -0.6078 H       1  UNL1        0.0000
     55 H           1.4630   -1.9792   -0.9330 H       1  UNL1        0.0000
     56 H           3.1726    0.5835    0.7730 H       1  UNL1        0.0000
     57 H           0.5598   -1.7126   -3.6897 H       1  UNL1        0.0000
     58 H          -1.6715   -1.8697   -3.4149 H       1  UNL1        0.0000
     59 H           0.7491   -0.8519    2.5452 H       1  UNL1        0.0000
     60 H          -2.7244    2.3011   -1.1067 H       1  UNL1        0.0000
     61 H           0.7963    1.1918   -3.5355 H       1  UNL1        0.0000
     62 H           1.8326    1.5019   -4.4285 H       1  UNL1        0.0000
     63 H           1.0008    3.8335   -0.5191 H       1  UNL1        0.0000
     64 H           2.6355   -0.5672   -0.3160 H       1  UNL1        0.0000
     65 H          -1.9033   -3.5630    1.9206 H       1  UNL1        0.0000
     66 H          -1.6099    1.2379    1.8764 H       1  UNL1        0.0000
     67 H           2.8308    1.7554    1.4564 H       1  UNL1        0.0000
     68 EU          1.5482    1.9503    0.3314 Eu      1  UNL1        0.0000
@<TRIPOS>BOND
     1     1     2    2
     2     2     3   am
     3     3     4    1
     4     3     5    1
     5     5     6    1
     6     6     7    1
     7     2     8    1
     8     8     9   ar
     9     9    10   ar
    10     8    11   ar
    11    11    12   ar
    12    12    13   ar
    13    10    13   ar
    14    13    14   ar
    15    14    15   ar
    16    15    16   ar
    17    16    17   ar
    18    12    17   ar
    19    17    18   ar
    20    18    19   ar
    21    19    20    1
    22    20    21   ar
    23    21    22   ar
    24    22    23    1
    25    23    24    1
    26    23    25    1
    27    23    26    1
    28    26    27    1
    29    27    28    1
    30    28    29    1
    31    28    30    1
    32    22    31   ar
    33    28    31    1
    34    31    32   ar
    35    32    33   ar
    36    20    33   ar
    37    19    34   ar
    38    34    35   ar
    39    16    35   ar
    40     4    36    1
    41     4    37    1
    42     4    38    1
    43     5    39    1
    44     5    40    1
    45     6    41    1
    46     6    42    1
    47     7    43    1
    48     7    44    1
    49     7    45    1
    50     9    46    1
    51    10    47    1
    52    14    48    1
    53    15    49    1
    54    24    50    1
    55    24    51    1
    56    24    52    1
    57    25    53    1
    58    25    54    1
    59    25    55    1
    60    26    56    1
    61    26    57    1
    62    27    58    1
    63    27    59    1
    64    29    60    1
    65    29    61    1
    66    29    62    1
    67    30    63    1
    68    30    64    1
    69    30    65    1
    70    34    66    1
    71    35    67    1
    72    68     1    1
    73    68    33    1
    74    68    18    1
    75    68    11    1
@<TRIPOS>MOLECULE
*****
 68 75 0 0 0
SMALL
GASTEIGER

@<TRIPOS>ATOM
      1 O           0.7011   -0.5707   -1.2148 O.2     1  UNL1        0.0000
      2 C          -1.7947   -0.2884   -0.7075 C.2     1  UNL1        0.0000
      3 N          -0.5811   -1.4974    2.9097 N.am    1  UNL1        0.0000
      4 C          -2.5809   -1.8211    2.7604 C.3     1  UNL1        0.0000
      5 C          -0.3658   -1.8528    2.8408 C.3     1  UNL1        0.0000
      6 C           1.9980   -2.4911    2.6725 C.3     1  UNL1        0.0000
      7 C          -1.6248   -3.5688    0.0813 C.3     1  UNL1        0.0000
      8 C          -0.3639    2.6617    0.5639 C.ar    1  UNL1        0.0000
      9 C           1.6698    0.7128    0.8387 C.ar    1  UNL1        0.0000
     10 C          -0.0736    0.1345   -4.0663 C.ar    1  UNL1        0.0000
     11 N           0.2046    2.7451   -0.6262 N.ar    1  UNL1        0.0000
     12 C           0.9528    2.3280   -2.2111 C.ar    1  UNL1        0.0000
     13 C          -1.4218    1.0774   -3.2184 C.ar    1  UNL1        0.0000
     14 C          -0.0975   -2.4476    0.0829 C.ar    1  UNL1        0.0000
     15 C          -0.1963   -2.4704    0.0689 C.ar    1  UNL1        0.0000
     16 C           0.2640   -1.2388   -2.3757 C.ar    1  UNL1        0.0000
     17 C           1.7527   -1.1962   -2.1587 C.ar    1  UNL1        0.0000
     18 N           0.6801   -0.7907    1.1131 N.ar    1  UNL1        0.0000
     19 C           0.1178   -0.8027    1.1209 C.ar    1  UNL1        0.0000
     20 C          -1.2371   -0.6165    1.7857 C.ar    1  UNL1        0.0000
     21 N          -2.4603    1.1795   -0.1691 N.ar    1  UNL1        0.0000
     22 C          -0.8839    0.2465   -1.9001 C.ar    1  UNL1        0.0000
     23 C          -0.6869   -4.0540   -1.5850 C.3     1  UNL1        0.0000
     24 C          -0.9719    1.0463    0.5303 C.3     1  UNL1        0.0000
     25 C           0.7787    0.7703   -1.8613 C.3     1  UNL1        0.0000
     26 C          -1.1555    0.3871    0.5090 C.3     1  UNL1        0.0000
     27 C          -2.9163   -0.5910    0.3960 C.3     1  UNL1        0.0000
     28 C           2.1196   -0.0693    2.3565 C.3     1  UNL1        0.0000
     29 C           1.6628    1.1913    2.4796 C.3     1  UNL1        0.0000
     30 C          -2.0147   -1.8480    0.3640 C.3     1  UNL1        0.0000
     31 C          -0.8676    0.2741   -1.9039 C.ar    1  UNL1        0.0000
     32 N          -2.5831    2.7914    0.3402 N.ar    1  UNL1        0.0000
     33 N          -0.2485    1.3431    2.5465 N.ar    1  UNL1        0.0000
     34 C           0.1834   -0.0926    1.2192 C.ar    1  UNL1        0.0000
     35 C           0.5055    1.1725   -0.2711 C.ar    1  UNL1        0.0000
     36 H          -1.4245    0.4275    3.1296 H       1  UNL1        0.0000
     37 H          -0.7377   -4.1248    1.8322 H       1  UNL1        0.0000
     38 H          -0.4335    2.2087    3.5938 H       1  UNL1        0.0000
     39 H          -0.5269   -2.2760   -2.9411 H       1  UNL1        0.0000
     40 H          -3.1830   -0.5826    1.7622 H       1  UNL1        0.0000
     41 H           2.7859   -2.3575    2.5666 H       1  UNL1        0.0000
     42 H          -3.2414   -0.6356   -1.0670 H       1  UNL1        0.0000
     43 H          -0.7084    1.5518   -4.3477 H       1  UNL1        0.0000
     44 H           2.0345    1.6408   -1.2510 H       1  UNL1        0.0000
     45 H           1.5511   -1.5269    0.2903 H       1  UNL1        0.0000
     46 H          -1.6854   -0.9032    3.4727 H       1  UNL1        0.0000
     47 H           0.7685   -2.9211   -3.3912 H       1  UNL1        0.0000
     48 H           4.1438   -1.1042   -1.8622 H       1  UNL1        0.0000
     49 H          -0.7240    1.1670    4.5314 H       1  UNL1        0.0000
     50 H          -1.2364   -2.2874    1.7023 H       1  UNL1        0.0000
     51 H          -1.0954   -1.3472   -1.8429 H       1  UNL1        0.0000
     52 H          -0.9855    3.3341   -1.1807 H       1  UNL1        0.0000
     53 H           0.4916   -3.3507   -2.1963 H       1  UNL1        0.0000
     54 H          -1.1918    2.1776   -0.6078 H       1  UNL1        0.0000
     55 H           1.4630   -1.9792   -0.9330 H       1  UNL1        0.0000
     56 H           3.1726    0.5835    0.7730 H       1  UNL1        0.0000
     57 H           0.5598   -1.7126   -3.6897 H       1  UNL1        0.0000
     58 H          -1.6715   -1.8697   -3.4149 H       1  UNL1        0.0000
     59 H           0.7491   -0.8519    2.5452 H       1  UNL1        0.0000
     60 H          -2.7244    2.3011   -1.1067 H       1  UNL1        0.0000
     61 H           0.7963    1.1918   -3.5355 H       1  UNL1        0.0000
     62 H           1.8326    1.5019   -4.4285 H       1  UNL1        0.0000
     63 H           1.0008    3.8335   -0.5191 H       1  UNL1        0.0000
     64 H           2.6355   -0.5672   -0.3160 H       1  UNL1        0.0000
     65 H          -1.9033   -3.5630    1.9206 H       1  UNL1        0.0000
     66 H          -1.6099    1.2379    1.8764 H       1  UNL1        0.0000
     67 H           2.8308    1.7554    1.4564 H       1  UNL1        0.0000
     68 EU          1.5482    1.9503    0.3314 Eu      1  UNL1        0.0000
@<TRIPOS>BOND
     1     1     2    2
     2     2     3   am
     3     3     4    1
     4     3     5    1
     5     5     6    1
     6     6     7    1
     7     2     8    1
     8     8     9   ar
     9     9    10   ar
    10     8    11   ar
    11    11    12   ar
    12    12    13   ar
    13    10    13   ar
    14    13    14   ar
    15    14    15   ar
    16    15    16   ar
    17    16    17   ar
    18    12    17   ar
    19    17    18   ar
    20    18    19   ar
    21    19    20    1
    22    20    21   ar
    23    21    22   ar
    24    22    23    1
    25    23    24    1
    26    23    25    1
    27    23    26    1
    28    26    27    1
    29    27    28    1
    30    28    29    1
    31    28    30    1
    32    22    31   ar
    33    28    31    1
    34    31    32   ar
    35    32    33   ar
    36    20    33   ar
    37    19    34   ar
    38    34    35   ar
    39    16    35   ar
    40     4    36    1
    41     4    37    1
    42     4    38    1
    43     5    39    1
    44     5    40    1
    45     6    41    1
    46     6    42    1
    47     7    43    1
    48     7    44    1
    49     7    45    1
    50     9    46    1
    51    10    47    1
    52    14    48    1
    53    15    49    1
    54    24    50    1
    55    24    51    1
    56    24    52    1
    57    25    53    1
    58    25    54    1
    59    25    55    1
    60    26    56    1
    61    26    57    1
    62    27    58    1
    63    27    59    1
    64    29    60    1
    65    29    61    1
    66    29    62    1
    67    30    63    1
    68    30    64    1
    69    30    65    1
    70    34    66    1
    71    35    67    1
    72    68     1    1
    73    68    33    1
    74    68    18    1
    75    68    11    1
@<TRIPOS>MOLECULE
*****
 68 75 0 0 0
SMALL
GASTEIGER

@<TRIPOS>ATOM
      1 O           0.7011   -0.5707   -1.2148 O.2     1  UNL1        0.0000
      2 C          -1.7947   -0.2884   -0.7075 C.2     1  UNL1        0.0000
      3 N          -0.5811   -1.4974    2.9097 N.am    1  UNL1        0.0000
      4 C          -2.5809   -1.8211    2.7604 C.3     1  UNL1        0.0000
      5 C          -0.3658   -1.8528    2.8408 C.3     1  UNL1        0.0000
      6 C           1.9980   -2.4911    2.6725 C.3     1  UNL1        0.0000
      7 C          -1.6248   -3.5688    0.0813 C.3     1  UNL1        0.0000
      8 C          -0.3639    2.6617    0.5639 C.ar    1  UNL1        0.0000
      9 C           1.6698    0.7128    0.8387 C.ar    1  UNL1        0.0000
     10 C          -0.0736    0.1345   -4.0663 C.ar    1  UNL1        0.0000
     11 N           0.2046    2.7451   -0.6262 N.ar    1  UNL1        0.0000
     12 C           0.9528    2.3280   -2.2111 C.ar    1  UNL1        0.0000
     13 C          -1.4218    1.0774   -3.2184 C.ar    1  UNL1        0.0000
     14 C          -0.0975   -2.4476    0.0829 C.ar    1  UNL1        0.0000
     15 C          -0.1963   -2.4704    0.0689 C.ar    1  UNL1        0.0000
     16 C           0.2640   -1.2388   -2.3757 C.ar    1  UNL1        0.0000
     17 C           1.7527   -1.1962   -2.1587 C.ar    1  UNL1        0.0000
     18 N           0.6801   -0.7907    1.1131 N.ar    1  UNL1        0.0000
     19 C           0.1178   -0.8027    1.1209 C.ar    1  UNL1        0.0000
     20 C          -1.2371   -0.6165    1.7857 C.ar    1  UNL1        0.0000
     21 N          -2.4603    1.1795   -0.1691 N.ar    1  UNL1        0.0000
     22 C          -0.8839    0.2465   -1.9001 C.ar    1  UNL1        0.0000
     23 C          -0.6869   -4.0540   -1.5850 C.3     1  UNL1        0.0000
     24 C          -0.9719    1.0463    0.5303 C.3     1  UNL1        0.0000
     25 C           0.7787    0.7703   -1.8613 C.3     1  UNL1        0.0000
     26 C          -1.1555    0.3871    0.5090 C.3     1  UNL1        0.0000
     27 C          -2.9163   -0.5910    0.3960 C.3     1  UNL1        0.0000
     28 C           2.1196   -0.0693    2.3565 C.3     1  UNL1        0.0000
     29 C           1.6628    1.1913    2.4796 C.3     1  UNL1        0.0000
     30 C          -2.0147   -1.8480    0.3640 C.3     1  UNL1        0.0000
     31 C          -0.8676    0.2741   -1.9039 C.ar    1  UNL1        0.0000
     32 N          -2.5831    2.7914    0.3402 N.ar    1  UNL1        0.0000
     33 N          -0.2485    1.3431    2.5465 N.ar    1  UNL1        0.0000
     34 C           0.1834   -0.0926    1.2192 C.ar    1  UNL1        0.0000
     35 C           0.5055    1.1725   -0.2711 C.ar    1  UNL1        0.0000
     36 H          -1.4245    0.4275    3.1296 H       1  UNL1        0.0000
     37 H          -0.7377   -4.1248    1.8322 H       1  UNL1        0.0000
     38 H          -0.4335    2.2087    3.5938 H       1  UNL1        0.0000
     39 H          -0.5269   -2.2760   -2.9411 H       1  UNL1        0.0000
     40 H          -3.1830   -0.5826    1.7622 H       1  UNL1        0.0000
     41 H           2.7859   -2.3575    2.5666 H       1  UNL1        0.0000
     42 H          -3.2414   -0.6356   -1.0670 H       1  UNL1        0.0000
     43 H          -0.7084    1.5518   -4.3477 H       1  UNL1        0.0000
     44 H           2.0345    1.6408   -1.2510 H       1  UNL1        0.0000
     45 H           1.5511   -1.5269    0.2903 H       1  UNL1        0.0000
     46 H          -1.6854   -0.9032    3.4727 H       1  UNL1        0.0000
     47 H           0.7685   -2.9211   -3.3912 H       1  UNL1        0.0000
     48 H           4.1438   -1.1042   -1.8622 H       1  UNL1        0.0000
     49 H          -0.7240    1.1670    4.5314 H       1  UNL1        0.0000
     50 H          -1.2364   -2.2874    1.7023 H       1  UNL1        0.0000
     51 H          -1.0954   -1.3472   -1.8429 H       1  UNL1        0.0000
     52 H          -0.9855    3.3341   -1.1807 H       1  UNL1        0.0000
     53 H           0.4916   -3.3507   -2.1963 H       1  UNL1        0.0000
     54 H          -1.1918    2.1776   -0.6078 H       1  UNL1        0.0000
     55 H           1.4630   -1.9792   -0.9330 H       1  UNL1        0.0000
     56 H           3.1726    0.5835    0.7730 H       1  UNL1        0.0000
     57 H           0.5598   -1.7126   -3.6897 H       1  UNL1        0.0000
     58 H          -1.6715   -1.8697   -3.4149 H       1  UNL1        0.0000
     59 H           0.7491   -0.8519    2.5452 H       1  UNL1        0.0000
     60 H          -2.7244    2.3011   -1.1067 H       1  UNL1        0.0000
     61 H           0.7963    1.1918   -3.5355 H       1  UNL1        0.0000
     62 H           1.8326    1.5019   -4.4285 H       1  UNL1        0.0000
     63 H           1.0008    3.8335   -0.5191 H       1  UNL1        0.0000
     64 H           2.6355   -0.5672   -0.3160 H       1  UNL1        0.0000
     65 H          -1.9033   -3.5630    1.9206 H       1  UNL1        0.0000
     66 H          -1.6099    1.2379    1.8764 H       1  UNL1        0.0000
     67 H           2.8308    1.7554    1.4564 H       1  UNL1        0.0000
     68 EU          1.5482    1.9503    0.3314 Eu      1  UNL1        0.0000
@<TRIPOS>BOND
     1     1     2    2
     2     2     3   am
     3     3     4    1
     4     3     5    1
     5     5     6    1
     6     6     7    1
     7     2     8    1
     8     8     9   ar
     9     9    10   ar
    10     8    11   ar
    11    11    12   ar
    12    12    13   ar
    13    10    13   ar
    14    13    14   ar
    15    14    15   ar
    16    15    16   ar
    17    16    17   ar
    18    12    17   ar
    19    17    18   ar
    20    18    19   ar
    21    19    20    1
    22    20    21   ar
    23    21    22   ar
    24    22    23    1
    25    23    24    1
    26    23    25    1
    27    23    26    1
    28    26    27    1
    29    27    28    1
    30    28    29    1
    31    28    30    1
    32    22    31   ar
    33    28    31    1
    34    31    32   ar
    35    32    33   ar
    36    20    33   ar
    37    19    34   ar
    38    34    35   ar
    39    16    35   ar
    40     4    36    1
    41     4    37    1
    42     4    38    1
    43     5    39    1
    44     5    40    1
    45     6    41    1
    46     6    42    1
    47     7    43    1
    48     7    44    1
    49     7    45    1
    50     9    46    1
    51    10    47    1
    52    14    48    1
    53    15    49    1
    54    24    50    1
    55    24    51    1
    56    24    52    1
    57    25    53    1
    58    25    54    1
    59    25    55    1
    60    26    56    1
    61    26    57    1
    62    27    58    1
    63    27    59    1
    64    29    60    1
    65    29    61    1
    66    29    62    1
    67    30    63    1
    68    30    64    1
    69    30    65    1
    70    34    66    1
    71    35    67    1
    72    68     1    1
    73    68    33    1
    74    68    18    1
    75    68    11    1
@<TRIPOS>MOLECULE
*****
 68 75 0 0 0
SMALL
GASTEIGER

@<TRIPOS>ATOM
      1 O           0.7011   -0.5707   -1.2148 O.2     1  UNL1        0.0000
      2 C          -1.7947   -0.2884   -0.7075 C.2     1  UNL1        0.0000
      3 N          -0.5811   -1.4974    2.9097 N.am    1  UNL1        0.0000
      4 C          -2.5809   -1.8211    2.7604 C.3     1  UNL1        0.0000
      5 C          -0.3658   -1.8528    2.8408 C.3     1  UNL1        0.0000
      6 C           1.9980   -2.4911    2.6725 C.3     1  UNL1        0.0000
      7 C          -1.6248   -3.5688    0.0813 C.3     1  UNL1        0.0000
      8 C          -0.3639    2.6617    0.5639 C.ar    1  UNL1        0.0000
      9 C           1.6698    0.7128    0.8387 C.ar    1  UNL1        0.0000
     10 C          -0.0736    0.1345   -4.0663 C.ar    1  UNL1        0.0000
     11 N           0.2046    2.7451   -0.6262 N.ar    1  UNL1        0.0000
     12 C           0.9528    2.3280   -2.2111 C.ar    1  UNL1        0.0000
     13 C          -1.4218    1.0774   -3.2184 C.ar    1  UNL1        0.0000
     14 C          -0.0975   -2.4476    0.0829 C.ar    1  UNL1        0.0000
     15 C          -0.1963   -2.4704    0.0689 C.ar    1  UNL1        0.0000
     16 C           0.2640   -1.2388   -2.3757 C.ar    1  UNL1        0.0000
     17 C           1.7527   -1.1962   -2.1587 C.ar    1  UNL1        0.0000
     18 N           0.6801   -0.7907    1.1131 N.ar    1  UNL1        0.0000
     19 C           0.1178   -0.8027    1.1209 C.ar    1  UNL1        0.0000
     20 C          -1.2371   -0.6165    1.7857 C.ar    1  UNL1        0.0000
     21 N          -2.4603    1.1795   -0.1691 N.ar    1  UNL1        0.0000
     22 C          -0.8839    0.2465   -1.9001 C.ar    1  UNL1        0.0000
     23 C          -0.6869   -4.0540   -1.5850 C.3     1  UNL1        0.0000
     24 C          -0.9719    1.0463    0.5303 C.3     1  UNL1        0.0000
     25 C           0.7787    0.7703   -1.8613 C.3     1  UNL1        0.0000
     26 C          -1.1555    0.3871    0.5090 C.3     1  UNL1        0.0000
     27 C          -2.9163   -0.5910    0.3960 C.3     1  UNL1        0.0000
     28 C           2.1196   -0.0693    2.3565 C.3     1  UNL1        0.0000
     29 C           1.6628    1.1913    2.4796 C.3     1  UNL1        0.0000
     30 C          -2.0147   -1.8480    0.3640 C.3     1  UNL1        0.0000
     31 C          -0.8676    0.2741   -1.9039 C.ar    1  UNL1        0.0000
     32 N          -2.5831    2.7914    0.3402 N.ar    1  UNL1        0.0000
     33 N          -0.2485    1.3431    2.5465 N.ar    1  UNL1        0.0000
     34 C           0.1834   -0.0926    1.2192 C.ar    1  UNL1        0.0000
     35 C           0.5055    1.1725   -0.2711 C.ar    1  UNL1        0.0000
     36 H          -1.4245    0.4275    3.1296 H       1  UNL1        0.0000
     37 H          -0.7377   -4.1248    1.8322 H       1  UNL1        0.0000
     38 H          -0.4335    2.2087    3.5938 H       1  UNL1        0.0000
     39 H          -0.5269   -2.2760   -2.9411 H       1  UNL1        0.0000
     40 H          -3.1830   -0.5826    1.7622 H       1  UNL1        0.0000
     41 H           2.7859   -2.3575    2.5666 H       1  UNL1        0.0000
     42 H          -3.2414   -0.6356   -1.0670 H       1  UNL1        0.0000
     43 H          -0.7084    1.5518   -4.3477 H       1  UNL1        0.0000
     44 H           2.0345    1.6408   -1.2510 H       1  UNL1        0.0000
     45 H           1.5511   -1.5269    0.2903 H       1  UNL1        0.0000
     46 H          -1.6854   -0.9032    3.4727 H       1  UNL1        0.0000
     47 H           0.7685   -2.9211   -3.3912 H       1  UNL1        0.0000
     48 H           4.1438   -1.1042   -1.8622 H       1  UNL1        0.0000
     49 H          -0.7240    1.1670    4.5314 H       1  UNL1        0.0000
     50 H          -1.2364   -2.2874    1.7023 H       1  UNL1        0.0000
     51 H          -1.0954   -1.3472   -1.8429 H       1  UNL1        0.0000
     52 H          -0.9855    3.3341   -1.1807 H       1  UNL1        0.0000
     53 H           0.4916   -3.3507   -2.1963 H       1  UNL1        0.0000
     54 H          -1.1918    2.1776   -0.6078 H       1  UNL1        0.0000
     55 H           1.4630   -1.9792   -0.9330 H       1  UNL1        0.0000
     56 H           3.1726    0.5835    0.7730 H       1  UNL1        0.0000
     57 H           0.5598   -1.7126   -3.6897 H       1  UNL1        0.0000
     58 H          -1.6715   -1.8697   -3.4149 H       1  UNL1        0.0000
     59 H           0.7491   -0.8519    2.5452 H       1  UNL1        0.0000
     60 H          -2.7244    2.3011   -1.1067 H       1  UNL1        0.0000
     61 H           0.7963    1.1918   -3.5355 H       1  UNL1        0.0000
     62 H           1.8326    1.5019   -4.4285 H       1  UNL1        0.0000
     63 H           1.0008    3.8335   -0.5191 H       1  UNL1        0.0000
     64 H           2.6355   -0.5672   -0.3160 H       1  UNL1        0.0000
     65 H          -1.9033   -3.5630    1.9206 H       1  UNL1        0.0000
     66 H          -1.6099    1.2379    1.8764 H       1  UNL1        0.0000
     67 H           2.8308    1.7554    1.4564 H       1  UNL1        0.0000
     68 EU          1.5482    1.9503    0.3314 Eu      1  UNL1        0.0000
@<TRIPOS>BOND
     1     1     2    2
     2     2     3   am
     3     3     4    1
     4     3     5    1
     5     5     6    1
     6     6     7    1
     7     2     8    1
     8     8     9   ar
     9     9    10   ar
    10     8    11   ar
    11    11    12   ar
    12    12    13   ar
    13    10    13   ar
    14    13    14   ar
    15    14    15   ar
    16    15    16   ar
    17    16    17   ar
    18    12    17   ar
    19    17    18   ar
    20    18    19   ar
    21    19    20    1
    22    20    21   ar
    23    21    22   ar
    24    22    23    1
    25    23    24    1
    26    23    25    1
    27    23    26    1
    28    26    27    1
    29    27    28    1
    30    28    29    1
    31    28    30    1
    32    22    31   ar
    33    28    31    1
    34    31    32   ar
    35    32    33   ar
    36    20    33   ar
    37    19    34   ar
    38    34    35   ar
    39    16    35   ar
    40     4    36    1
    41     4    37    1
    42     4    38    1
    43     5    39    1
    44     5    40    1
    45     6    41    1
    46     6    42    1
    47     7    43    1
    48     7    44    1
    49     7    45    1
    50     9    46    1
    51    10    47    1
    52    14    48    1
    53    15    49    1
    54    24    50    1
    55    24    51    1
    56    24    52    1
    57    25    53    1
    58    25    54    1
    59    25    55    1
    60    26    56    1
    61    26    57    1
    62    27    58    1
    63    27    59    1
    64    29    60    1
    65    29    61    1
    66    29    62    1
    67    30    63    1
    68    30    64    1
    69    30    65    1
    70    34    66    1
    71    35    67    1
    72    68     1    1
    73    68    33    1
    74    68    18    1
    75    68    11    1
@<TRIPOS>MOLECULE
*****
 68 75 0 0 0
SMALL
GASTEIGER

@<TRIPOS>ATOM
      1 O           0.7011   -0.5707   -1.2148 O.2     1  UNL1        0.0000
      2 C          -1.7947   -0.2884   -0.7075 C.2     1  UNL1        0.0000
      3 N          -0.5811   -1.4974    2.9097 N.am    1  UNL1        0.0000
      4 C          -2.5809   -1.8211    2.7604 C.3     1  UNL1        0.0000
      5 C          -0.3658   -1.8528    2.8408 C.3     1  UNL1        0.0000
      6 C           1.9980   -2.4911    2.6725 C.3     1  UNL1        0.0000
      7 C          -1.6248   -3.5688    0.0813 C.3     1  UNL1        0.0000
      8 C          -0.3639    2.6617    0.5639 C.ar    1  UNL1        0.0000
      9 C           1.6698    0.7128    0.8387 C.ar    1  UNL1        0.0000
     10 C          -0.0736    0.1345   -4.0663 C.ar    1  UNL1        0.0000
     11 N           0.2046    2.7451   -0.6262 N.ar    1  UNL1        0.0000
     12 C           0.9528    2.3280   -2.2111 C.ar    1  UNL1        0.0000
     13 C          -1.4218    1.0774   -3.2184 C.ar    1  UNL1        0.0000
     14 C          -0.0975   -2.4476    0.0829 C.ar    1  UNL1        0.0000
     15 C          -0.1963   -2.4704    0.0689 C.ar    1  UNL1        0.0000
     16 C           0.2640   -1.2388   -2.3757 C.ar    1  UNL1        0.0000
     17 C           1.7527   -1.1962   -2.1587 C.ar    1  UNL1        0.0000
     18 N           0.6801   -0.7907    1.1131 N.ar    1  UNL1        0.0000
     19 C           0.1178   -0.8027    1.1209 C.ar    1  UNL1        0.0000
     20 C          -1.2371   -0.6165    1.7857 C.ar    1  UNL1        0.0000
     21 N          -2.4603    1.1795   -0.1691 N.ar    1  UNL1        0.0000
     22 C          -0.8839    0.2465   -1.9001 C.ar    1  UNL1        0.0000
     23 C          -0.6869   -4.0540   -1.5850 C.3     1  UNL1        0.0000
     24 C          -0.9719    1.0463    0.5303 C.3     1  UNL1        0.0000
     25 C           0.7787    0.7703   -1.8613 C.3     1  UNL1        0.0000
     26 C          -1.1555    0.3871    0.5090 C.3     1  UNL1        0.0000
     27 C          -2.9163   -0.5910    0.3960 C.3     1  UNL1        0.0000
     28 C           2.1196   -0.0693    2.3565 C.3     1  UNL1        0.0000
     29 C           1.6628    1.1913    2.4796 C.3     1  UNL1        0.0000
     30 C          -2.0147   -1.8480    0.3640 C.3     1  UNL1        0.0000
     31 C          -0.8676    0.2741   -1.9039 C.ar    1  UNL1        0.0000
     32 N          -2.5831    2.7914    0.3402 N.ar    1  UNL1        0.0000
     33 N          -0.2485    1.3431    2.5465 N.ar    1  UNL1        0.0000
     34 C           0.1834   -0.0926    1.2192 C.ar    1  UNL1        0.0000
     35 C           0.5055    1.1725   -0.2711 C.ar    1  UNL1        0.0000
     36 H          -1.4245    0.4275    3.1296 H       1  UNL1        0.0000
     37 H          -0.7377   -4.1248    1.8322 H       1  UNL1        0.0000
     38 H          -0.4335    2.2087    3.5938 H       1  UNL1        0.0000
     39 H          -0.5269   -2.2760   -2.9411 H       1  UNL1        0.0000
     40 H          -3.1830   -0.5826    1.7622 H       1  UNL1        0.0000
     41 H           2.7859   -2.3575    2.5666 H       1  UNL1        0.0000
     42 H          -3.2414   -0.6356   -1.0670 H       1  UNL1        0.0000
     43 H          -0.7084    1.5518   -4.3477 H       1  UNL1        0.0000
     44 H           2.0345    1.6408   -1.2510 H       1  UNL1        0.0000
     45 H           1.5511   -1.5269    0.2903 H       1  UNL1        0.0000
     46 H          -1.6854   -0.9032    3.4727 H       1  UNL1        0.0000
     47 H           0.7685   -2.9211   -3.3912 H       1  UNL1        0.0000
     48 H           4.1438   -1.1042   -1.8622 H       1  UNL1        0.0000
     49 H          -0.7240    1.1670    4.5314 H       1  UNL1        0.0000
     50 H          -1.2364   -2.2874    1.7023 H       1  UNL1        0.0000
     51 H          -1.0954   -1.3472   -1.8429 H       1  UNL1        0.0000
     52 H          -0.9855    3.3341   -1.1807 H       1  UNL1        0.0000
     53 H           0.4916   -3.3507   -2.1963 H       1  UNL1        0.0000
     54 H          -1.1918    2.1776   -0.6078 H       1  UNL1        0.0000
     55 H           1.4630   -1.9792   -0.9330 H       1  UNL1        0.0000
     56 H           3.1726    0.5835    0.7730 H       1  UNL1        0.0000
     57 H           0.5598   -1.7126   -3.6897 H       1  UNL1        0.0000
     58 H          -1.6715   -1.8697   -3.4149 H       1  UNL1        0.0000
     59 H           0.7491   -0.8519    2.5452 H       1  UNL1        0.0000
     60 H          -2.7244    2.3011   -1.1067 H       1  UNL1        0.0000
     61 H           0.7963    1.1918   -3.5355 H       1  UNL1        0.0000
     62 H           1.8326    1.5019   -4.4285 H       1  UNL1        0.0000
     63 H           1.0008    3.8335   -0.5191 H       1  UNL1        0.0000
     64 H           2.6355   -0.5672   -0.3160 H       1  UNL1        0.0000
     65 H          -1.9033   -3.5630    1.9206 H       1  UNL1        0.0000
     66 H          -1.6099    1.2379    1.8764 H       1  UNL1        0.0000
     67 H           2.8308    1.7554    1.4564 H       1  UNL1        0.0000
     68 EU          1.5482    1.9503    0.3314 Eu      1  UNL1        0.0000
@<TRIPOS>BOND
     1     1     2    2
     2     2     3   am
     3     3     4    1
     4     3     5    1
     5     5     6    1
     6     6     7    1
     7     2     8    1
     8     8     9   ar
     9     9    10   ar
    10     8    11   ar
    11    11    12   ar
    12    12    13   ar
    13    10    13   ar
    14    13    14   ar
    15    14    15   ar
    16    15    16   ar
    17    16    17   ar
    18    12    17   ar
    19    17    18   ar
    20    18    19   ar
    21    19    20    1
    22    20    21   ar
    23    21    22   ar
    24    22    23    1
    25    23    24    1
    26    23    25    1
    27    23    26    1
    28    26    27    1
    29    27    28    1
    30    28    29    1
    31    28    30    1
    32    22    31   ar
    33    28    31    1
    34    31    32   ar
    35    32    33   ar
    36    20    33   ar
    37    19    34   ar
    38    34    35   ar
    39    16    35   ar
    40     4    36    1
    41     4    37    1
    42     4    38    1
    43     5    39    1
    44     5    40    1
    45     6    41    1
    46     6    42    1
    47     7    43    1
    48     7    44    1
    49     7    45    1
    50     9    46    1
    51    10    47    1
    52    14    48    1
    53    15    49    1
    54    24    50    1
    55    24    51    1
    56    24    52    1
    57    25    53    1
    58    25    54    1
    59    25    55    1
    60    26    56    1
    61    26    57    1
    62    27    58    1
    63    27    59    1
    64    29    60    1
    65    29    61    1
    66    29    62    1
    67    30    63    1
    68    30    64    1
    69    30    65    1
    70    34    66    1
    71    35    67    1
    72    68     1    1
    73    68    33    1
    74    68    18    1
    75    68    11    1
@<TRIPOS>MOLECULE
*****
 68 75 0 0 0
SMALL
GASTEIGER

@<TRIPOS>ATOM
      1 O           0.7011   -0.5707   -1.2148 O.2     1  UNL1        0.0000
      2 C          -1.7947   -0.2884   -0.7075 C.2     1  UNL1        0.0000
      3 N          -0.5811   -1.4974    2.9097 N.am    1  UNL1        0.0000
      4 C          -2.5809   -1.8211    2.7604 C.3     1  UNL1        0.0000
      5 C          -0.3658   -1.8528    2.8408 C.3     1  UNL1        0.0000
      6 C           1.9980   -2.4911    2.6725 C.3     1  UNL1        0.0000
      7 C          -1.6248   -3.5688    0.0813 C.3     1  UNL1        0.0000
      8 C          -0.3639    2.6617    0.5639 C.ar    1  UNL1        0.0000
      9 C           1.6698    0.7128    0.8387 C.ar    1  UNL1        0.0000
     10 C          -0.0736    0.1345   -4.0663 C.ar    1  UNL1        0.0000
     11 N           0.2046    2.7451   -0.6262 N.ar    1  UNL1        0.0000
     12 C           0.9528    2.3280   -2.2111 C.ar    1  UNL1        0.0000
     13 C          -1.4218    1.0774   -3.2184 C.ar    1  UNL1        0.0000
     14 C          -0.0975   -2.4476    0.0829 C.ar    1  UNL1        0.0000
     15 C          -0.1963   -2.4704    0.0689 C.ar    1  UNL1        0.0000
     16 C           0.2640   -1.2388   -2.3757 C.ar    1  UNL1        0.0000
     17 C           1.7527   -1.1962   -2.1587 C.ar    1  UNL1        0.0000
     18 N           0.6801   -0.7907    1.1131 N.ar    1  UNL1        0.0000
     19 C           0.1178   -0.8027    1.1209 C.ar    1  UNL1        0.0000
     20 C          -1.2371   -0.6165    1.7857 C.ar    1  UNL1        0.0000
     21 N          -2.4603    1.1795   -0.1691 N.ar    1  UNL1        0.0000
     22 C          -0.8839    0.2465   -1.9001 C.ar    1  UNL1        0.0000
     23 C          -0.6869   -4.0540   -1.5850 C.3     1  UNL1        0.0000
     24 C          -0.9719    1.0463    0.5303 C.3     1  UNL1        0.0000
     25 C           0.7787    0.7703   -1.8613 C.3     1  UNL1        0.0000
     26 C          -1.1555    0.3871    0.5090 C.3     1  UNL1        0.0000
     27 C          -2.9163   -0.5910    0.3960 C.3     1  UNL1        0.0000
     28 C           2.1196   -0.0693    2.3565 C.3     1  UNL1        0.0000
     29 C           1.6628    1.1913    2.4796 C.3     1  UNL1        0.0000
     30 C          -2.0147   -1.8480    0.3640 C.3     1  UNL1        0.0000
     31 C          -0.8676    0.2741   -1.9039 C.ar    1  UNL1        0.0000
     32 N          -2.5831    2.7914    0.3402 N.ar    1  UNL1        0.0000
     33 N          -0.2485    1.3431    2.5465 N.ar    1  UNL1        0.0000
     34 C           0.1834   -0.0926    1.2192 C.ar    1  UNL1        0.0000
     35 C           0.5055    1.1725   -0.2711 C.ar    1  UNL1        0.0000
     36 H          -1.4245    0.4275    3.1296 H       1  UNL1        0.0000
     37 H          -0.7377   -4.1248    1.8322 H       1  UNL1        0.0000
     38 H          -0.4335    2.2087    3.5938 H       1  UNL1        0.0000
     39 H          -0.5269   -2.2760   -2.9411 H       1  UNL1        0.0000
     40 H          -3.1830   -0.5826    1.7622 H       1  UNL1        0.0000
     41 H           2.7859   -2.3575    2.5666 H       1  UNL1        0.0000
     42 H          -3.2414   -0.6356   -1.0670 H       1  UNL1        0.0000
     43 H          -0.7084    1.5518   -4.3477 H       1  UNL1        0.0000
     44 H           2.0345    1.6408   -1.2510 H       1  UNL1        0.0000
     45 H           1.5511   -1.5269    0.2903 H       1  UNL1        0.0000
     46 H          -1.6854   -0.9032    3.4727 H       1  UNL1        0.0000
     47 H           0.7685   -2.9211   -3.3912 H       1  UNL1        0.0000
     48 H           4.1438   -1.1042   -1.8622 H       1  UNL1        0.0000
     49 H          -0.7240    1.1670    4.5314 H       1  UNL1        0.0000
     50 H          -1.2364   -2.2874    1.7023 H       1  UNL1        0.0000
     51 H          -1.0954   -1.3472   -1.8429 H       1  UNL1        0.0000
     52 H          -0.9855    3.3341   -1.1807 H       1  UNL1        0.0000
     53 H           0.4916   -3.3507   -2.1963 H       1  UNL1        0.0000
     54 H          -1.1918    2.1776   -0.6078 H       1  UNL1        0.0000
     55 H           1.4630   -1.9792   -0.9330 H       1  UNL1        0.0000
     56 H           3.1726    0.5835    0.7730 H       1  UNL1        0.0000
     57 H           0.5598   -1.7126   -3.6897 H       1  UNL1        0.0000
     58 H          -1.6715   -1.8697   -3.4149 H       1  UNL1        0.0000
     59 H           0.7491   -0.8519    2.5452 H       1  UNL1        0.0000
     60 H          -2.7244    2.3011   -1.1067 H       1  UNL1        0.0000
     61 H           0.7963    1.1918   -3.5355 H       1  UNL1        0.0000
     62 H           1.8326    1.5019   -4.4285 H       1  UNL1        0.0000
     63 H           1.0008    3.8335   -0.5191 H       1  UNL1        0.0000
     64 H           2.6355   -0.5672   -0.3160 H       1  UNL1        0.0000
     65 H          -1.9033   -3.5630    1.9206 H       1  UNL1        0.0000
     66 H          -1.6099    1.2379    1.8764 H       1  UNL1        0.0000
     67 H           2.8308    1.7554    1.4564 H       1  UNL1        0.0000
     68 EU          1.5482    1.9503    0.3314 Eu      1  UNL1        0.0000
@<TRIPOS>BOND
     1     1     2    2
     2     2     3   am
     3     3     4    1
     4     3     5    1
     5     5     6    1
     6     6     7    1
     7     2     8    1
     8     8     9   ar
     9     9    10   ar
    10     8    11   ar
    11    11    12   ar
    12    12    13   ar
    13    10    13   ar
    14    13    14   ar
    15    14    15   ar
    16    15    16   ar
    17    16    17   ar
    18    12    17   ar
    19    17    18   ar
    20    18    19   ar
    21    19    20    1
    22    20    21   ar
    23    21    22   ar
    24    22    23    1
    25    23    24    1
    26    23    25    1
    27    23    26    1
    28    26    27    1
    29    27    28    1
    30    28    29    1
    31    28    30    1
    32    22    31   ar
    33    28    31    1
    34    31    32   ar
    35    32    33   ar
    36    20    33   ar
    37    19    34   ar
    38    34    35   ar
    39    16    35   ar
    40     4    36    1
    41     4    37    1
    42     4    38    1
    43     5    39    1
    44     5    40    1
    45     6    41    1
    46     6    42    1
    47     7    43    1
    48     7    44    1
    49     7    45    1
    50     9    46    1
    51    10    47    1
    52    14    48    1
    53    15    49    1
    54    24    50    1
    55    24    51    1
    56    24    52    1
    57    25    53    1
    58    25    54    1
    59    25    55    1
    60    26    56    1
    61    26    57    1
    62    27    58    1
    63    27    59    1
    64    29    60    1
    65    29    61    1
    66    29    62    1
    67    30    63    1
    68    30    64    1
    69    30    65    1
    70    34    66    1
    71    35    67    1
    72    68     1    1
    73    68    33    1
    74    68    18    1
    75    68    11    1
@<TRIPOS>MOLECULE
*****
 68 75 0 0 0
SMALL
GASTEIGER

@<TRIPOS>ATOM
      1 O           0.7011   -0.5707   -1.2148 O.2     1  UNL1        0.0000
      2 C          -1.7947   -0.2884   -0.7075 C.2     1  UNL1        0.0000
      3 N          -0.5811   -1.4974    2.9097 N.am    1  UNL1        0.0000
      4 C          -2.5809   -1.8211    2.7604 C.3     1  UNL1        0.0000
      5 C          -0.3658   -1.8528    2.8408 C.3     1  UNL1        0.0000
      6 C           1.9980   -2.4911    2.6725 C.3     1  UNL1        0.0000
      7 C          -1.6248   -3.5688    0.0813 C.3     1  UNL1        0.0000
      8 C          -0.3639    2.6617    0.5639 C.ar    1  UNL1        0.0000
      9 C           1.6698    0.7128    0.8387 C.ar    1  UNL1        0.0000
     10 C          -0.0736    0.1345   -4.0663 C.ar    1  UNL1        0.0000
     11 N           0.2046    2.7451   -0.6262 N.ar    1  UNL1        0.0000
     12 C           0.9528    2.3280   -2.2111 C.ar    1  UNL1        0.0000
     13 C          -1.4218    1.0774   -3.2184 C.ar    1  UNL1        0.0000
     14 C          -0.0975   -2.4476    0.0829 C.ar    1  UNL1        0.0000
     15 C          -0.1963   -2.4704    0.0689 C.ar    1  UNL1        0.0000
     16 C           0.2640   -1.2388   -2.3757 C.ar    1  UNL1        0.0000
     17 C           1.7527   -1.1962   -2.1587 C.ar    1  UNL1        0.0000
     18 N           0.6801   -0.7907    1.1131 N.ar    1  UNL1        0.0000
     19 C           0.1178   -0.8027    1.1209 C.ar    1  UNL1        0.0000
     20 C          -1.2371   -0.6165    1.7857 C.ar    1  UNL1        0.0000
     21 N          -2.4603    1.1795   -0.1691 N.ar    1  UNL1        0.0000
     22 C          -0.8839    0.2465   -1.9001 C.ar    1  UNL1        0.0000
     23 C          -0.6869   -4.0540   -1.5850 C.3     1  UNL1        0.0000
     24 C          -0.9719    1.0463    0.5303 C.3     1  UNL1        0.0000
     25 C           0.7787    0.7703   -1.8613 C.3     1  UNL1        0.0000
     26 C          -1.1555    0.3871    0.5090 C.3     1  UNL1        0.0000
     27 C          -2.9163   -0.5910    0.3960 C.3     1  UNL1        0.0000
     28 C           2.1196   -0.0693    2.3565 C.3     1  UNL1        0.0000
     29 C           1.6628    1.1913    2.4796 C.3     1  UNL1        0.0000
     30 C          -2.0147   -1.8480    0.3640 C.3     1  UNL1        0.0000
     31 C          -0.8676    0.2741   -1.9039 C.ar    1  UNL1        0.0000
     32 N          -2.5831    2.7914    0.3402 N.ar    1  UNL1        0.0000
     33 N          -0.2485    1.3431    2.5465 N.ar    1  UNL1        0.0000
     34 C           0.1834   -0.0926    1.2192 C.ar    1  UNL1        0.0000
     35 C           0.5055    1.1725   -0.2711 C.ar    1  UNL1        0.0000
     36 H          -1.4245    0.4275    3.1296 H       1  UNL1        0.0000
     37 H          -0.7377   -4.1248    1.8322 H       1  UNL1        0.0000
     38 H          -0.4335    2.2087    3.5938 H       1  UNL1        0.0000
     39 H          -0.5269   -2.2760   -2.9411 H       1  UNL1        0.0000
     40 H          -3.1830   -0.5826    1.7622 H       1  UNL1        0.0000
     41 H           2.7859   -2.3575    2.5666 H       1  UNL1        0.0000
     42 H          -3.2414   -0.6356   -1.0670 H       1  UNL1        0.0000
     43 H          -0.7084    1.5518   -4.3477 H       1  UNL1        0.0000
     44 H           2.0345    1.6408   -1.2510 H       1  UNL1        0.0000
     45 H           1.5511   -1.5269    0.2903 H       1  UNL1        0.0000
     46 H          -1.6854   -0.9032    3.4727 H       1  UNL1        0.0000
     47 H           0.7685   -2.9211   -3.3912 H       1  UNL1        0.0000
     48 H           4.1438   -1.1042   -1.8622 H       1  UNL1        0.0000
     49 H          -0.7240    1.1670    4.5314 H       1  UNL1        0.0000
     50 H          -1.2364   -2.2874    1.7023 H       1  UNL1        0.0000
     51 H          -1.0954   -1.3472   -1.8429 H       1  UNL1        0.0000
     52 H          -0.9855    3.3341   -1.1807 H       1  UNL1        0.0000
     53 H           0.4916   -3.3507   -2.1963 H       1  UNL1        0.0000
     54 H          -1.1918    2.1776   -0.6078 H       1  UNL1        0.0000
     55 H           1.4630   -1.9792   -0.9330 H       1  UNL1        0.0000
     56 H           3.1726    0.5835    0.7730 H       1  UNL1        0.0000
     57 H           0.5598   -1.7126   -3.6897 H       1  UNL1        0.0000
     58 H          -1.6715   -1.8697   -3.4149 H       1  UNL1        0.0000
     59 H           0.7491   -0.8519    2.5452 H       1  UNL1        0.0000
     60 H          -2.7244    2.3011   -1.1067 H       1  UNL1        0.0000
     61 H           0.7963    1.1918   -3.5355 H       1  UNL1        0.0000
     62 H           1.8326    1.5019   -4.4285 H       1  UNL1        0.0000
     63 H           1.0008    3.8335   -0.5191 H       1  UNL1        0.0000
     64 H           2.6355   -0.5672   -0.3160 H       1  UNL1        0.0000
     65 H          -1.9033   -3.5630    1.9206 H       1  UNL1        0.0000
     66 H          -1.6099    1.2379    1.8764 H       1  UNL1        0.0000
     67 H           2.8308    1.7554    1.4564 H       1  UNL1        0.0000
     68 EU          1.5482    1.9503    0.3314 Eu      1  UNL1        0.0000
@<TRIPOS>BOND
     1     1     2    2
     2     2     3   am
     3     3     4    1
     4     3     5    1
     5     5     6    1
     6     6     7    1
     7     2     8    1
     8     8     9   ar
     9     9    10   ar
    10     8    11   ar
    11    11    12   ar
    12    12    13   ar
    13    10    13   ar
    14    13    14   ar
    15    14    15   ar
    16    15    16   ar
    17    16    17   ar
    18    12    17   ar
    19    17    18   ar
    20    18    19   ar
    21    19    20    1
    22    20    21   ar
    23    21    22   ar
    24    22    23    1
    25    23    24    1
    26    23    25    1
    27    23    26    1
    28    26    27    1
    29    27    28    1
    30    28    29    1
    31    28    30    1
    32    22    31   ar
    33    28    31    1
    34    31    32   ar
    35    32    33   ar
    36    20    33   ar
    37    19    34   ar
    38    34    35   ar
    39    16    35   ar
    40     4    36    1
    41     4    37    1
    42     4    38    1
    43     5    39    1
    44     5    40    1
    45     6    41    1
    46     6    42    1
    47     7    43    1
    48     7    44    1
    49     7    45    1
    50     9    46    1
    51    10    47    1
    52    14    48    1
    53    15    49    1
    54    24    50    1
    55    24    51    1
    56    24    52    1
    57    25    53    1
    58    25    54    1
    59    25    55    1
    60    26    56    1
    61    26    57    1
    62    27    58    1
    63    27    59    1
    64    29    60    1
    65    29    61    1
    66    29    62    1
    67    30    63    1
    68    30    64    1
    69    30    65    1
    70    34    66    1
    71    35    67    1
    72    68     1    1
    73    68    33    1
    74    68    18    1
    75    68    11    1
@<TRIPOS>MOLECULE
*****
 68 75 0 0 0
SMALL
GASTEIGER

@<TRIPOS>ATOM
      1 O           0.7011   -0.5707   -1.2148 O.2     1  UNL1        0.0000
      2 C          -1.7947   -0.2884   -0.7075 C.2     1  UNL1        0.0000
      3 N          -0.5811   -1.4974    2.9097 N.am    1  UNL1        0.0000
      4 C          -2.5809   -1.8211    2.7604 C.3     1  UNL1        0.0000
      5 C          -0.3658   -1.8528    2.8408 C.3     1  UNL1        0.0000
      6 C           1.9980   -2.4911    2.6725 C.3     1  UNL1        0.0000
      7 C          -1.6248   -3.5688    0.0813 C.3     1  UNL1        0.0000
      8 C          -0.3639    2.6617    0.5639 C.ar    1  UNL1        0.0000
      9 C           1.6698    0.7128    0.8387 C.ar    1  UNL1        0.0000
     10 C          -0.0736    0.1345   -4.0663 C.ar    1  UNL1        0.0000
     11 N           0.2046    2.7451   -0.6262 N.ar    1  UNL1        0.0000
     12 C           0.9528    2.3280   -2.2111 C.ar    1  UNL1        0.0000
     13 C          -1.4218    1.0774   -3.2184 C.ar    1  UNL1        0.0000
     14 C          -0.0975   -2.4476    0.0829 C.ar    1  UNL1        0.0000
     15 C          -0.1963   -2.4704    0.0689 C.ar    1  UNL1        0.0000
     16 C           0.2640   -1.2388   -2.3757 C.ar    1  UNL1        0.0000
     17 C           1.7527   -1.1962   -2.1587 C.ar    1  UNL1        0.0000
     18 N           0.6801   -0.7907    1.1131 N.ar    1  UNL1        0.0000
     19 C           0.1178   -0.8027    1.1209 C.ar    1  UNL1        0.0000
     20 C          -1.2371   -0.6165    1.7857 C.ar    1  UNL1        0.0000
     21 N          -2.4603    1.1795   -0.1691 N.ar    1  UNL1        0.0000
     22 C          -0.8839    0.2465   -1.9001 C.ar    1  UNL1        0.0000
     23 C          -0.6869   -4.0540   -1.5850 C.3     1  UNL1        0.0000
     24 C          -0.9719    1.0463    0.5303 C.3     1  UNL1        0.0000
     25 C           0.7787    0.7703   -1.8613 C.3     1  UNL1        0.0000
     26 C          -1.1555    0.3871    0.5090 C.3     1  UNL1        0.0000
     27 C          -2.9163   -0.5910    0.3960 C.3     1  UNL1        0.0000
     28 C           2.1196   -0.0693    2.3565 C.3     1  UNL1        0.0000
     29 C           1.6628    1.1913    2.4796 C.3     1  UNL1        0.0000
     30 C          -2.0147   -1.8480    0.3640 C.3     1  UNL1        0.0000
     31 C          -0.8676    0.2741   -1.9039 C.ar    1  UNL1        0.0000
     32 N          -2.5831    2.7914    0.3402 N.ar    1  UNL1        0.0000
     33 N          -0.2485    1.3431    2.5465 N.ar    1  UNL1        0.0000
     34 C           0.1834   -0.0926    1.2192 C.ar    1  UNL1        0.0000
     35 C           0.5055    1.1725   -0.2711 C.ar    1  UNL1        0.0000
     36 H          -1.4245    0.4275    3.1296 H       1  UNL1        0.0000
     37 H          -0.7377   -4.1248    1.8322 H       1  UNL1        0.0000
     38 H          -0.4335    2.2087    3.5938 H       1  UNL1        0.0000
     39 H          -0.5269   -2.2760   -2.9411 H       1  UNL1        0.0000
     40 H          -3.1830   -0.5826    1.7622 H       1  UNL1        0.0000
     41 H           2.7859   -2.3575    2.5666 H       1  UNL1        0.0000
     42 H          -3.2414   -0.6356   -1.0670 H       1  UNL1        0.0000
     43 H          -0.7084    1.5518   -4.3477 H       1  UNL1        0.0000
     44 H           2.0345    1.6408   -1.2510 H       1  UNL1        0.0000
     45 H           1.5511   -1.5269    0.2903 H       1  UNL1        0.0000
     46 H          -1.6854   -0.9032    3.4727 H       1  UNL1        0.0000
     47 H           0.7685   -2.9211   -3.3912 H       1  UNL1        0.0000
     48 H           4.1438   -1.1042   -1.8622 H       1  UNL1        0.0000
     49 H          -0.7240    1.1670    4.5314 H       1  UNL1        0.0000
     50 H          -1.2364   -2.2874    1.7023 H       1  UNL1        0.0000
     51 H          -1.0954   -1.3472   -1.8429 H       1  UNL1        0.0000
     52 H          -0.9855    3.3341   -1.1807 H       1  UNL1        0.0000
     53 H           0.4916   -3.3507   -2.1963 H       1  UNL1        0.0000
     54 H          -1.1918    2.1776   -0.6078 H       1  UNL1        0.0000
     55 H           1.4630   -1.9792   -0.9330 H       1  UNL1        0.0000
     56 H           3.1726    0.5835    0.7730 H       1  UNL1        0.0000
     57 H           0.5598   -1.7126   -3.6897 H       1  UNL1        0.0000
     58 H          -1.6715   -1.8697   -3.4149 H       1  UNL1        0.0000
     59 H           0.7491   -0.8519    2.5452 H       1  UNL1        0.0000
     60 H          -2.7244    2.3011   -1.1067 H       1  UNL1        0.0000
     61 H           0.7963    1.1918   -3.5355 H       1  UNL1        0.0000
     62 H           1.8326    1.5019   -4.4285 H       1  UNL1        0.0000
     63 H           1.0008    3.8335   -0.5191 H       1  UNL1        0.0000
     64 H           2.6355   -0.5672   -0.3160 H       1  UNL1        0.0000
     65 H          -1.9033   -3.5630    1.9206 H       1  UNL1        0.0000
     66 H          -1.6099    1.2379    1.8764 H       1  UNL1        0.0000
     67 H           2.8308    1.7554    1.4564 H       1  UNL1        0.0000
     68 EU          1.5482    1.9503    0.3314 Eu      1  UNL1        0.0000
@<TRIPOS>BOND
     1     1     2    2
     2     2     3   am
     3     3     4    1
     4     3     5    1
     5     5     6    1
     6     6     7    1
     7     2     8    1
     8     8     9   ar
     9     9    10   ar
    10     8    11   ar
    11    11    12   ar
    12    12    13   ar
    13    10    13   ar
    14    13    14   ar
    15    14    15   ar
    16    15    16   ar
    17    16    17   ar
    18    12    17   ar
    19    17    18   ar
    20    18    19   ar
    21    19    20    1
    22    20    21   ar
    23    21    22   ar
    24    22    23    1
    25    23    24    1
    26    23    25    1
    27    23    26    1
    28    26    27    1
    29    27    28    1
    30    28    29    1
    31    28    30    1
    32    22    31   ar
    33    28    31    1
    34    31    32   ar
    35    32    33   ar
    36    20    33   ar
    37    19    34   ar
    38    34    35   ar
    39    16    35   ar
    40     4    36    1
    41     4    37    1
    42     4    38    1
    43     5    39    1
    44     5    40    1
    45     6    41    1
    46     6    42    1
    47     7    43    1
    48     7    44    1
    49     7    45    1
    50     9    46    1
    51    10    47    1
    52    14    48    1
    53    15    49    1
    54    24    50    1
    55    24    51    1
    56    24    52    1
    57    25    53    1
    58    25    54    1
    59    25    55    1
    60    26    56    1
    61    26    57    1
    62    27    58    1
    63    27    59    1
    64    29    60    1
    65    29    61    1
    66    29    62    1
    67    30    63    1
    68    30    64    1
    69    30    65    1
    70    34    66    1
    71    35    67    1
    72    68     1    1
    73    68    33    1
    74    68    18    1
    75    68    11    1
@<TRIPOS>MOLECULE
*****
 68 75 0 0 0
SMALL
GASTEIGER

@<TRIPOS>ATOM
      1 O           0.7011   -0.5707   -1.2148 O.2     1  UNL1        0.0000
      2 C          -1.7947   -0.2884   -0.7075 C.2     1  UNL1        0.0000
      3 N          -0.5811   -1.4974    2.9097 N.am    1  UNL1        0.0000
      4 C          -2.5809   -1.8211    2.7604 C.3     1  UNL1        0.0000
      5 C          -0.3658   -1.8528    2.8408 C.3     1  UNL1        0.0000
      6 C           1.9980   -2.4911    2.6725 C.3     1  UNL1        0.0000
      7 C          -1.6248   -3.5688    0.0813 C.3     1  UNL1        0.0000
      8 C          -0.3639    2.6617    0.5639 C.ar    1  UNL1        0.0000
      9 C           1.6698    0.7128    0.8387 C.ar    1  UNL1        0.0000
     10 C          -0.0736    0.1345   -4.0663 C.ar    1  UNL1        0.0000
     11 N           0.2046    2.7451   -0.6262 N.ar    1  UNL1        0.0000
     12 C           0.9528    2.3280   -2.2111 C.ar    1  UNL1        0.0000
     13 C          -1.4218    1.0774   -3.2184 C.ar    1  UNL1        0.0000
     14 C          -0.0975   -2.4476    0.0829 C.ar    1  UNL1        0.0000
     15 C          -0.1963   -2.4704    0.0689 C.ar    1  UNL1        0.0000
     16 C           0.2640   -1.2388   -2.3757 C.ar    1  UNL1        0.0000
     17 C           1.7527   -1.1962   -2.1587 C.ar    1  UNL1        0.0000
     18 N           0.6801   -0.7907    1.1131 N.ar    1  UNL1        0.0000
     19 C           0.1178   -0.8027    1.1209 C.ar    1  UNL1        0.0000
     20 C          -1.2371   -0.6165    1.7857 C.ar    1  UNL1        0.0000
     21 N          -2.4603    1.1795   -0.1691 N.ar    1  UNL1        0.0000
     22 C          -0.8839    0.2465   -1.9001 C.ar    1  UNL1        0.0000
     23 C          -0.6869   -4.0540   -1.5850 C.3     1  UNL1        0.0000
     24 C          -0.9719    1.0463    0.5303 C.3     1  UNL1        0.0000
     25 C           0.7787    0.7703   -1.8613 C.3     1  UNL1        0.0000
     26 C          -1.1555    0.3871    0.5090 C.3     1  UNL1        0.0000
     27 C          -2.9163   -0.5910    0.3960 C.3     1  UNL1        0.0000
     28 C           2.1196   -0.0693    2.3565 C.3     1  UNL1        0.0000
     29 C           1.6628    1.1913    2.4796 C.3     1  UNL1        0.0000
     30 C          -2.0147   -1.8480    0.3640 C.3     1  UNL1        0.0000
     31 C          -0.8676    0.2741   -1.9039 C.ar    1  UNL1        0.0000
     32 N          -2.5831    2.7914    0.3402 N.ar    1  UNL1        0.0000
     33 N          -0.2485    1.3431    2.5465 N.ar    1  UNL1        0.0000
     34 C           0.1834   -0.0926    1.2192 C.ar    1  UNL1        0.0000
     35 C           0.5055    1.1725   -0.2711 C.ar    1  UNL1        0.0000
     36 H          -1.4245    0.4275    3.1296 H       1  UNL1        0.0000
     37 H          -0.7377   -4.1248    1.8322 H       1  UNL1        0.0000
     38 H          -0.4335    2.2087    3.5938 H       1  UNL1        0.0000
     39 H          -0.5269   -2.2760   -2.9411 H       1  UNL1        0.0000
     40 H          -3.1830   -0.5826    1.7622 H       1  UNL1        0.0000
     41 H           2.7859   -2.3575    2.5666 H       1  UNL1        0.0000
     42 H          -3.2414   -0.6356   -1.0670 H       1  UNL1        0.0000
     43 H          -0.7084    1.5518   -4.3477 H       1  UNL1        0.0000
     44 H           2.0345    1.6408   -1.2510 H       1  UNL1        0.0000
     45 H           1.5511   -1.5269    0.2903 H       1  UNL1        0.0000
     46 H          -1.6854   -0.9032    3.4727 H       1  UNL1        0.0000
     47 H           0.7685   -2.9211   -3.3912 H       1  UNL1        0.0000
     48 H           4.1438   -1.1042   -1.8622 H       1  UNL1        0.0000
     49 H          -0.7240    1.1670    4.5314 H       1  UNL1        0.0000
     50 H          -1.2364   -2.2874    1.7023 H       1  UNL1        0.0000
     51 H          -1.0954   -1.3472   -1.8429 H       1  UNL1        0.0000
     52 H          -0.9855    3.3341   -1.1807 H       1  UNL1        0.0000
     53 H           0.4916   -3.3507   -2.1963 H       1  UNL1        0.0000
     54 H          -1.1918    2.1776   -0.6078 H       1  UNL1        0.0000
     55 H           1.4630   -1.9792   -0.9330 H       1  UNL1        0.0000
     56 H           3.1726    0.5835    0.7730 H       1  UNL1        0.0000
     57 H           0.5598   -1.7126   -3.6897 H       1  UNL1        0.0000
     58 H          -1.6715   -1.8697   -3.4149 H       1  UNL1        0.0000
     59 H           0.7491   -0.8519    2.5452 H       1  UNL1        0.0000
     60 H          -2.7244    2.3011   -1.1067 H       1  UNL1        0.0000
     61 H           0.7963    1.1918   -3.5355 H       1  UNL1        0.0000
     62 H           1.8326    1.5019   -4.4285 H       1  UNL1        0.0000
     63 H           1.0008    3.8335   -0.5191 H       1  UNL1        0.0000
     64 H           2.6355   -0.5672   -0.3160 H       1  UNL1        0.0000
     65 H          -1.9033   -3.5630    1.9206 H       1  UNL1        0.0000
     66 H          -1.6099    1.2379    1.8764 H       1  UNL1        0.0000
     67 H           2.8308    1.7554    1.4564 H       1  UNL1        0.0000
     68 EU          1.5482    1.9503    0.3314 Eu      1  UNL1        0.0000
@<TRIPOS>BOND
     1     1     2    2
     2     2     3   am
     3     3     4    1
     4     3     5    1
     5     5     6    1
     6     6     7    1
     7     2     8    1
     8     8     9   ar
     9     9    10   ar
    10     8    11   ar
    11    11    12   ar
    12    12    13   ar
    13    10    13   ar
    14    13    14   ar
    15    14    15   ar
    16    15    16   ar
    17    16    17   ar
    18    12    17   ar
    19    17    18   ar
    20    18    19   ar
    21    19    20    1
    22    20    21   ar
    23    21    22   ar
    24    22    23    1
    25    23    24    1
    26    23    25    1
    27    23    26    1
    28    26    27    1
    29    27    28    1
    30    28    29    1
    31    28    30    1
    32    22    31   ar
    33    28    31    1
    34    31    32   ar
    35    32    33   ar
    36    20    33   ar
    37    19    34   ar
    38    34    35   ar
    39    16    35   ar
    40     4    36    1
    41     4    37    1
    42     4    38    1
    43     5    39    1
    44     5    40    1
    45     6    41    1
    46     6    42    1
    47     7    43    1
    48     7    44    1
    49     7    45    1
    50     9    46    1
    51    10    47    1
    52    14    48    1
    53    15    49    1
    54    24    50    1
    55    24    51    1
    56    24    52    1
    57    25    53    1
    58    25    54    1
    59    25    55    1
    60    26    56    1
    61    26    57    1
    62    27    58    1
    63    27    59    1
    64    29    60    1
    65    29    61    1
    66    29    62    1
    67    30    63    1
    68    30    64    1
    69    30    65    1
    70    34    66    1
    71    35    67    1
    72    68     1    1
    73    68    33    1
    74    68    18    1
    75    68    11    1
@<TRIPOS>MOLECULE
*****
 68 75 0 0 0
SMALL
GASTEIGER

@<TRIPOS>ATOM
      1 O           0.7011   -0.5707   -1.2148 O.2     1  UNL1        0.0000
      2 C          -1.7947   -0.2884   -0.7075 C.2     1  UNL1        0.0000
      3 N          -0.5811   -1.4974    2.9097 N.am    1  UNL1        0.0000
      4 C          -2.5809   -1.8211    2.7604 C.3     1  UNL1        0.0000
      5 C          -0.3658   -1.8528    2.8408 C.3     1  UNL1        0.0000
      6 C           1.9980   -2.4911    2.6725 C.3     1  UNL1        0.0000
      7 C          -1.6248   -3.5688    0.0813 C.3     1  UNL1        0.0000
      8 C          -0.3639    2.6617    0.5639 C.ar    1  UNL1        0.0000
      9 C           1.6698    0.7128    0.8387 C.ar    1  UNL1        0.0000
     10 C          -0.0736    0.1345   -4.0663 C.ar    1  UNL1        0.0000
     11 N           0.2046    2.7451   -0.6262 N.ar    1  UNL1        0.0000
     12 C           0.9528    2.3280   -2.2111 C.ar    1  UNL1        0.0000
     13 C          -1.4218    1.0774   -3.2184 C.ar    1  UNL1        0.0000
     14 C          -0.0975   -2.4476    0.0829 C.ar    1  UNL1        0.0000
     15 C          -0.1963   -2.4704    0.0689 C.ar    1  UNL1        0.0000
     16 C           0.2640   -1.2388   -2.3757 C.ar    1  UNL1        0.0000
     17 C           1.7527   -1.1962   -2.1587 C.ar    1  UNL1        0.0000
     18 N           0.6801   -0.7907    1.1131 N.ar    1  UNL1        0.0000
     19 C           0.1178   -0.8027    1.1209 C.ar    1  UNL1        0.0000
     20 C          -1.2371   -0.6165    1.7857 C.ar    1  UNL1        0.0000
     21 N          -2.4603    1.1795   -0.1691 N.ar    1  UNL1        0.0000
     22 C          -0.8839    0.2465   -1.9001 C.ar    1  UNL1        0.0000
     23 C          -0.6869   -4.0540   -1.5850 C.3     1  UNL1        0.0000
     24 C          -0.9719    1.0463    0.5303 C.3     1  UNL1        0.0000
     25 C           0.7787    0.7703   -1.8613 C.3     1  UNL1        0.0000
     26 C          -1.1555    0.3871    0.5090 C.3     1  UNL1        0.0000
     27 C          -2.9163   -0.5910    0.3960 C.3     1  UNL1        0.0000
     28 C           2.1196   -0.0693    2.3565 C.3     1  UNL1        0.0000
     29 C           1.6628    1.1913    2.4796 C.3     1  UNL1        0.0000
     30 C          -2.0147   -1.8480    0.3640 C.3     1  UNL1        0.0000
     31 C          -0.8676    0.2741   -1.9039 C.ar    1  UNL1        0.0000
     32 N          -2.5831    2.7914    0.3402 N.ar    1  UNL1        0.0000
     33 N          -0.2485    1.3431    2.5465 N.ar    1  UNL1        0.0000
     34 C           0.1834   -0.0926    1.2192 C.ar    1  UNL1        0.0000
     35 C           0.5055    1.1725   -0.2711 C.ar    1  UNL1        0.0000
     36 H          -1.4245    0.4275    3.1296 H       1  UNL1        0.0000
     37 H          -0.7377   -4.1248    1.8322 H       1  UNL1        0.0000
     38 H          -0.4335    2.2087    3.5938 H       1  UNL1        0.0000
     39 H          -0.5269   -2.2760   -2.9411 H       1  UNL1        0.0000
     40 H          -3.1830   -0.5826    1.7622 H       1  UNL1        0.0000
     41 H           2.7859   -2.3575    2.5666 H       1  UNL1        0.0000
     42 H          -3.2414   -0.6356   -1.0670 H       1  UNL1        0.0000
     43 H          -0.7084    1.5518   -4.3477 H       1  UNL1        0.0000
     44 H           2.0345    1.6408   -1.2510 H       1  UNL1        0.0000
     45 H           1.5511   -1.5269    0.2903 H       1  UNL1        0.0000
     46 H          -1.6854   -0.9032    3.4727 H       1  UNL1        0.0000
     47 H           0.7685   -2.9211   -3.3912 H       1  UNL1        0.0000
     48 H           4.1438   -1.1042   -1.8622 H       1  UNL1        0.0000
     49 H          -0.7240    1.1670    4.5314 H       1  UNL1        0.0000
     50 H          -1.2364   -2.2874    1.7023 H       1  UNL1        0.0000
     51 H          -1.0954   -1.3472   -1.8429 H       1  UNL1        0.0000
     52 H          -0.9855    3.3341   -1.1807 H       1  UNL1        0.0000
     53 H           0.4916   -3.3507   -2.1963 H       1  UNL1        0.0000
     54 H          -1.1918    2.1776   -0.6078 H       1  UNL1        0.0000
     55 H           1.4630   -1.9792   -0.9330 H       1  UNL1        0.0000
     56 H           3.1726    0.5835    0.7730 H       1  UNL1        0.0000
     57 H           0.5598   -1.7126   -3.6897 H       1  UNL1        0.0000
     58 H          -1.6715   -1.8697   -3.4149 H       1  UNL1        0.0000
     59 H           0.7491   -0.8519    2.5452 H       1  UNL1        0.0000
     60 H          -2.7244    2.3011   -1.1067 H       1  UNL1        0.0000
     61 H           0.7963    1.1918   -3.5355 H       1  UNL1        0.0000
     62 H           1.8326    1.5019   -4.4285 H       1  UNL1        0.0000
     63 H           1.0008    3.8335   -0.5191 H       1  UNL1        0.0000
     64 H           2.6355   -0.5672   -0.3160 H       1  UNL1        0.0000
     65 H          -1.9033   -3.5630    1.9206 H       1  UNL1        0.0000
     66 H          -1.6099    1.2379    1.8764 H       1  UNL1        0.0000
     67 H           2.8308    1.7554    1.4564 H       1  UNL1        0.0000
     68 EU          1.5482    1.9503    0.3314 Eu      1  UNL1        0.0000
@<TRIPOS>BOND
     1     1     2    2
     2     2     3   am
     3     3     4    1
     4     3     5    1
     5     5     6    1
     6     6     7    1
     7     2     8    1
     8     8     9   ar
     9     9    10   ar
    10     8    11   ar
    11    11    12   ar
    12    12    13   ar
    13    10    13   ar
    14    13    14   ar
    15    14    15   ar
    16    15    16   ar
    17    16    17   ar
    18    12    17   ar
    19    17    18   ar
    20    18    19   ar
    21    19    20    1
    22    20    21   ar
    23    21    22   ar
    24    22    23    1
    25    23    24    1
    26    23    25    1
    27    23    26    1
    28    26    27    1
    29    27    28    1
    30    28    29    1
    31    28    30    1
    32    22    31   ar
    33    28    31    1
    34    31    32   ar
    35    32    33   ar
    36    20    33   ar
    37    19    34   ar
    38    34    35   ar
    39    16    35   ar
    40     4    36    1
    41     4    37    1
    42     4    38    1
    43     5    39    1
    44     5    40    1
    45     6    41    1
    46     6    42    1
    47     7    43    1
    48     7    44    1
    49     7    45    1
    50     9    46    1
    51    10    47    1
    52    14    48    1
    53    15    49    1
    54    24    50    1
    55    24    51    1
    56    24    52    1
    57    25    53    1
    58    25    54    1
    59    25    55    1
    60    26    56    1
    61    26    57    1
    62    27    58    1
    63    27    59    1
    64    29    60    1
    65    29    61    1
    66    29    62    1
    67    30    63    1
    68    30    64    1
    69    30    65    1
    70    34    66    1
    71    35    67    1
    72    68     1    1
    73    68    33    1
    74    68    18    1
    75    68    11    1
@<TRIPOS>MOLECULE
*****
 68 75 0 0 0
SMALL
GASTEIGER

@<TRIPOS>ATOM
      1 O           0.7011   -0.5707   -1.2148 O.2     1  UNL1        0.0000
      2 C          -1.7947   -0.2884   -0.7075 C.2     1  UNL1        0.0000
      3 N          -0.5811   -1.4974    2.9097 N.am    1  UNL1        0.0000
      4 C          -2.5809   -1.8211    2.7604 C.3     1  UNL1        0.0000
      5 C          -0.3658   -1.8528    2.8408 C.3     1  UNL1        0.0000
      6 C           1.9980   -2.4911    2.6725 C.3     1  UNL1        0.0000
      7 C          -1.6248   -3.5688    0.0813 C.3     1  UNL1        0.0000
      8 C          -0.3639    2.6617    0.5639 C.ar    1  UNL1        0.0000
      9 C           1.6698    0.7128    0.8387 C.ar    1  UNL1        0.0000
     10 C          -0.0736    0.1345   -4.0663 C.ar    1  UNL1        0.0000
     11 N           0.2046    2.7451   -0.6262 N.ar    1  UNL1        0.0000
     12 C           0.9528    2.3280   -2.2111 C.ar    1  UNL1        0.0000
     13 C          -1.4218    1.0774   -3.2184 C.ar    1  UNL1        0.0000
     14 C          -0.0975   -2.4476    0.0829 C.ar    1  UNL1        0.0000
     15 C          -0.1963   -2.4704    0.0689 C.ar    1  UNL1        0.0000
     16 C           0.2640   -1.2388   -2.3757 C.ar    1  UNL1        0.0000
     17 C           1.7527   -1.1962   -2.1587 C.ar    1  UNL1        0.0000
     18 N           0.6801   -0.7907    1.1131 N.ar    1  UNL1        0.0000
     19 C           0.1178   -0.8027    1.1209 C.ar    1  UNL1        0.0000
     20 C          -1.2371   -0.6165    1.7857 C.ar    1  UNL1        0.0000
     21 N          -2.4603    1.1795   -0.1691 N.ar    1  UNL1        0.0000
     22 C          -0.8839    0.2465   -1.9001 C.ar    1  UNL1        0.0000
     23 C          -0.6869   -4.0540   -1.5850 C.3     1  UNL1        0.0000
     24 C          -0.9719    1.0463    0.5303 C.3     1  UNL1        0.0000
     25 C           0.7787    0.7703   -1.8613 C.3     1  UNL1        0.0000
     26 C          -1.1555    0.3871    0.5090 C.3     1  UNL1        0.0000
     27 C          -2.9163   -0.5910    0.3960 C.3     1  UNL1        0.0000
     28 C           2.1196   -0.0693    2.3565 C.3     1  UNL1        0.0000
     29 C           1.6628    1.1913    2.4796 C.3     1  UNL1        0.0000
     30 C          -2.0147   -1.8480    0.3640 C.3     1  UNL1        0.0000
     31 C          -0.8676    0.2741   -1.9039 C.ar    1  UNL1        0.0000
     32 N          -2.5831    2.7914    0.3402 N.ar    1  UNL1        0.0000
     33 N          -0.2485    1.3431    2.5465 N.ar    1  UNL1        0.0000
     34 C           0.1834   -0.0926    1.2192 C.ar    1  UNL1        0.0000
     35 C           0.5055    1.1725   -0.2711 C.ar    1  UNL1        0.0000
     36 H          -1.4245    0.4275    3.1296 H       1  UNL1        0.0000
     37 H          -0.7377   -4.1248    1.8322 H       1  UNL1        0.0000
     38 H          -0.4335    2.2087    3.5938 H       1  UNL1        0.0000
     39 H          -0.5269   -2.2760   -2.9411 H       1  UNL1        0.0000
     40 H          -3.1830   -0.5826    1.7622 H       1  UNL1        0.0000
     41 H           2.7859   -2.3575    2.5666 H       1  UNL1        0.0000
     42 H          -3.2414   -0.6356   -1.0670 H       1  UNL1        0.0000
     43 H          -0.7084    1.5518   -4.3477 H       1  UNL1        0.0000
     44 H           2.0345    1.6408   -1.2510 H       1  UNL1        0.0000
     45 H           1.5511   -1.5269    0.2903 H       1  UNL1        0.0000
     46 H          -1.6854   -0.9032    3.4727 H       1  UNL1        0.0000
     47 H           0.7685   -2.9211   -3.3912 H       1  UNL1        0.0000
     48 H           4.1438   -1.1042   -1.8622 H       1  UNL1        0.0000
     49 H          -0.7240    1.1670    4.5314 H       1  UNL1        0.0000
     50 H          -1.2364   -2.2874    1.7023 H       1  UNL1        0.0000
     51 H          -1.0954   -1.3472   -1.8429 H       1  UNL1        0.0000
     52 H          -0.9855    3.3341   -1.1807 H       1  UNL1        0.0000
     53 H           0.4916   -3.3507   -2.1963 H       1  UNL1        0.0000
     54 H          -1.1918    2.1776   -0.6078 H       1  UNL1        0.0000
     55 H           1.4630   -1.9792   -0.9330 H       1  UNL1        0.0000
     56 H           3.1726    0.5835    0.7730 H       1  UNL1        0.0000
     57 H           0.5598   -1.7126   -3.6897 H       1  UNL1        0.0000
     58 H          -1.6715   -1.8697   -3.4149 H       1  UNL1        0.0000
     59 H           0.7491   -0.8519    2.5452 H       1  UNL1        0.0000
     60 H          -2.7244    2.3011   -1.1067 H       1  UNL1        0.0000
     61 H           0.7963    1.1918   -3.5355 H       1  UNL1        0.0000
     62 H           1.8326    1.5019   -4.4285 H       1  UNL1        0.0000
     63 H           1.0008    3.8335   -0.5191 H       1  UNL1        0.0000
     64 H           2.6355   -0.5672   -0.3160 H       1  UNL1        0.0000
     65 H          -1.9033   -3.5630    1.9206 H       1  UNL1        0.0000
     66 H          -1.6099    1.2379    1.8764 H       1  UNL1        0.0000
     67 H           2.8308    1.7554    1.4564 H       1  UNL1        0.0000
     68 EU          1.5482    1.9503    0.3314 Eu      1  UNL1        0.0000
@<TRIPOS>BOND
     1     1     2    2
     2     2     3   am
     3     3     4    1
     4     3     5    1
     5     5     6    1
     6     6     7    1
     7     2     8    1
     8     8     9   ar
     9     9    10   ar
    10     8    11   ar
    11    11    12   ar
    12    12    13   ar
    13    10    13   ar
    14    13    14   ar
    15    14    15   ar
    16    15    16   ar
    17    16    17   ar
    18    12    17   ar
    19    17    18   ar
    20    18    19   ar
    21    19    20    1
    22    20    21   ar
    23    21    22   ar
    24    22    23    1
    25    23    24    1
    26    23    25    1
    27    23    26    1
    28    26    27    1
    29    27    28    1
    30    28    29    1
    31    28    30    1
    32    22    31   ar
    33    28    31    1
    34    31    32   ar
    35    32    33   ar
    36    20    33   ar
    37    19    34   ar
    38    34    35   ar
    39    16    35   ar
    40     4    36    1
    41     4    37    1
    42     4    38    1
    43     5    39    1
    44     5    40    1
    45     6    41    1
    46     6    42    1
    47     7    43    1
    48     7    44    1
    49     7    45    1
    50     9    46    1
    51    10    47    1
    52    14    48    1
    53    15    49    1
    54    24    50    1
    55    24    51    1
    56    24    52    1
    57    25    53    1
    58    25    54    1
    59    25    55    1
    60    26    56    1
    61    26    57    1
    62    27    58    1
    63    27    59    1
    64    29    60    1
    65    29    61    1
    66    29    62    1
    67    30    63    1
    68    30    64    1
    69    30    65    1
    70    34    66    1
    71    35    67    1
    72    68     1    1
    73    68    33    1
    74    68    18    1
    75    68    11    1
@<TRIPOS>MOLECULE
*****
 68 75 0 0 0
SMALL
GASTEIGER

@<TRIPOS>ATOM
      1 O           0.7011   -0.5707   -1.2148 O.2     1  UNL1        0.0000
      2 C          -1.7947   -0.2884   -0.7075 C.2     1  UNL1        0.0000
      3 N          -0.5811   -1.4974    2.9097 N.am    1  UNL1        0.0000
      4 C          -2.5809   -1.8211    2.7604 C.3     1  UNL1        0.0000
      5 C          -0.3658   -1.8528    2.8408 C.3     1  UNL1        0.0000
      6 C           1.9980   -2.4911    2.6725 C.3     1  UNL1        0.0000
      7 C          -1.6248   -3.5688    0.0813 C.3     1  UNL1        0.0000
      8 C          -0.3639    2.6617    0.5639 C.ar    1  UNL1        0.0000
      9 C           1.6698    0.7128    0.8387 C.ar    1  UNL1        0.0000
     10 C          -0.0736    0.1345   -4.0663 C.ar    1  UNL1        0.0000
     11 N           0.2046    2.7451   -0.6262 N.ar    1  UNL1        0.0000
     12 C           0.9528    2.3280   -2.2111 C.ar    1  UNL1        0.0000
     13 C          -1.4218    1.0774   -3.2184 C.ar    1  UNL1        0.0000
     14 C          -0.0975   -2.4476    0.0829 C.ar    1  UNL1        0.0000
     15 C          -0.1963   -2.4704    0.0689 C.ar    1  UNL1        0.0000
     16 C           0.2640   -1.2388   -2.3757 C.ar    1  UNL1        0.0000
     17 C           1.7527   -1.1962   -2.1587 C.ar    1  UNL1        0.0000
     18 N           0.6801   -0.7907    1.1131 N.ar    1  UNL1        0.0000
     19 C           0.1178   -0.8027    1.1209 C.ar    1  UNL1        0.0000
     20 C          -1.2371   -0.6165    1.7857 C.ar    1  UNL1        0.0000
     21 N          -2.4603    1.1795   -0.1691 N.ar    1  UNL1        0.0000
     22 C          -0.8839    0.2465   -1.9001 C.ar    1  UNL1        0.0000
     23 C          -0.6869   -4.0540   -1.5850 C.3     1  UNL1        0.0000
     24 C          -0.9719    1.0463    0.5303 C.3     1  UNL1        0.0000
     25 C           0.7787    0.7703   -1.8613 C.3     1  UNL1        0.0000
     26 C          -1.1555    0.3871    0.5090 C.3     1  UNL1        0.0000
     27 C          -2.9163   -0.5910    0.3960 C.3     1  UNL1        0.0000
     28 C           2.1196   -0.0693    2.3565 C.3     1  UNL1        0.0000
     29 C           1.6628    1.1913    2.4796 C.3     1  UNL1        0.0000
     30 C          -2.0147   -1.8480    0.3640 C.3     1  UNL1        0.0000
     31 C          -0.8676    0.2741   -1.9039 C.ar    1  UNL1        0.0000
     32 N          -2.5831    2.7914    0.3402 N.ar    1  UNL1        0.0000
     33 N          -0.2485    1.3431    2.5465 N.ar    1  UNL1        0.0000
     34 C           0.1834   -0.0926    1.2192 C.ar    1  UNL1        0.0000
     35 C           0.5055    1.1725   -0.2711 C.ar    1  UNL1        0.0000
     36 H          -1.4245    0.4275    3.1296 H       1  UNL1        0.0000
     37 H          -0.7377   -4.1248    1.8322 H       1  UNL1        0.0000
     38 H          -0.4335    2.2087    3.5938 H       1  UNL1        0.0000
     39 H          -0.5269   -2.2760   -2.9411 H       1  UNL1        0.0000
     40 H          -3.1830   -0.5826    1.7622 H       1  UNL1        0.0000
     41 H           2.7859   -2.3575    2.5666 H       1  UNL1        0.0000
     42 H          -3.2414   -0.6356   -1.0670 H       1  UNL1        0.0000
     43 H          -0.7084    1.5518   -4.3477 H       1  UNL1        0.0000
     44 H           2.0345    1.6408   -1.2510 H       1  UNL1        0.0000
     45 H           1.5511   -1.5269    0.2903 H       1  UNL1        0.0000
     46 H          -1.6854   -0.9032    3.4727 H       1  UNL1        0.0000
     47 H           0.7685   -2.9211   -3.3912 H       1  UNL1        0.0000
     48 H           4.1438   -1.1042   -1.8622 H       1  UNL1        0.0000
     49 H          -0.7240    1.1670    4.5314 H       1  UNL1        0.0000
     50 H          -1.2364   -2.2874    1.7023 H       1  UNL1        0.0000
     51 H          -1.0954   -1.3472   -1.8429 H       1  UNL1        0.0000
     52 H          -0.9855    3.3341   -1.1807 H       1  UNL1        0.0000
     53 H           0.4916   -3.3507   -2.1963 H       1  UNL1        0.0000
     54 H          -1.1918    2.1776   -0.6078 H       1  UNL1        0.0000
     55 H           1.4630   -1.9792   -0.9330 H       1  UNL1        0.0000
     56 H           3.1726    0.5835    0.7730 H       1  UNL1        0.0000
     57 H           0.5598   -1.7126   -3.6897 H       1  UNL1        0.0000
     58 H          -1.6715   -1.8697   -3.4149 H       1  UNL1        0.0000
     59 H           0.7491   -0.8519    2.5452 H       1  UNL1        0.0000
     60 H          -2.7244    2.3011   -1.1067 H       1  UNL1        0.0000
     61 H           0.7963    1.1918   -3.5355 H       1  UNL1        0.0000
     62 H           1.8326    1.5019   -4.4285 H       1  UNL1        0.0000
     63 H           1.0008    3.8335   -0.5191 H       1  UNL1        0.0000
     64 H           2.6355   -0.5672   -0.3160 H       1  UNL1        0.0000
     65 H          -1.9033   -3.5630    1.9206 H       1  UNL1        0.0000
     66 H          -1.6099    1.2379    1.8764 H       1  UNL1        0.0000
     67 H           2.8308    1.7554    1.4564 H       1  UNL1        0.0000
     68 EU          1.5482    1.9503    0.3314 Eu      1  UNL1        0.0000
@<TRIPOS>BOND
     1     1     2    2
     2     2     3   am
     3     3     4    1
     4     3     5    1
     5     5     6    1
     6     6     7    1
     7     2     8    1
     8     8     9   ar
     9     9    10   ar
    10     8    11   ar
    11    11    12   ar
    12    12    13   ar
    13    10    13   ar
    14    13    14   ar
    15    14    15   ar
    16    15    16   ar
    17    16    17   ar
    18    12    17   ar
    19    17    18   ar
    20    18    19   ar
    21    19    20    1
    22    20    21   ar
    23    21    22   ar
    24    22    23    1
    25    23    24    1
    26    23    25    1
    27    23    26    1
    28    26    27    1
    29    27    28    1
    30    28    29    1
    31    28    30    1
    32    22    31   ar
    33    28    31    1
    34    31    32   ar
    35    32    33   ar
    36    20    33   ar
    37    19    34   ar
    38    34    35   ar
    39    16    35   ar
    40     4    36    1
    41     4    37    1
    42     4    38    1
    43     5    39    1
    44     5    40    1
    45     6    41    1
    46     6    42    1
    47     7    43    1
    48     7    44    1
    49     7    45    1
    50     9    46    1
    51    10    47    1
    52    14    48    1
    53    15    49    1
    54    24    50    1
    55    24    51    1
    56    24    52    1
    57    25    53    1
    58    25    54    1
    59    25    55    1
    60    26    56    1
    61    26    57    1
    62    27    58    1
    63    27    59    1
    64    29    60    1
    65    29    61    1
    66    29    62    1
    67    30    63    1
    68    30    64    1
    69    30    65    1
    70    34    66    1
    71    35    67    1
    72    68     1    1
    73    68    33    1
    74    68    18    1
    75    68    11    1
@<TRIPOS>MOLECULE
*****
 68 75 0 0 0
SMALL
GASTEIGER

@<TRIPOS>ATOM
      1 O           0.7011   -0.5707   -1.2148 O.2     1  UNL1        0.0000
      2 C          -1.7947   -0.2884   -0.7075 C.2     1  UNL1        0.0000
      3 N          -0.5811   -1.4974    2.9097 N.am    1  UNL1        0.0000
      4 C          -2.5809   -1.8211    2.7604 C.3     1  UNL1        0.0000
      5 C          -0.3658   -1.8528    2.8408 C.3     1  UNL1        0.0000
      6 C           1.9980   -2.4911    2.6725 C.3     1  UNL1        0.0000
      7 C          -1.6248   -3.5688    0.0813 C.3     1  UNL1        0.0000
      8 C          -0.3639    2.6617    0.5639 C.ar    1  UNL1        0.0000
      9 C           1.6698    0.7128    0.8387 C.ar    1  UNL1        0.0000
     10 C          -0.0736    0.1345   -4.0663 C.ar    1  UNL1        0.0000
     11 N           0.2046    2.7451   -0.6262 N.ar    1  UNL1        0.0000
     12 C           0.9528    2.3280   -2.2111 C.ar    1  UNL1        0.0000
     13 C          -1.4218    1.0774   -3.2184 C.ar    1  UNL1        0.0000
     14 C          -0.0975   -2.4476    0.0829 C.ar    1  UNL1        0.0000
     15 C          -0.1963   -2.4704    0.0689 C.ar    1  UNL1        0.0000
     16 C           0.2640   -1.2388   -2.3757 C.ar    1  UNL1        0.0000
     17 C           1.7527   -1.1962   -2.1587 C.ar    1  UNL1        0.0000
     18 N           0.6801   -0.7907    1.1131 N.ar    1  UNL1        0.0000
     19 C           0.1178   -0.8027    1.1209 C.ar    1  UNL1        0.0000
     20 C          -1.2371   -0.6165    1.7857 C.ar    1  UNL1        0.0000
     21 N          -2.4603    1.1795   -0.1691 N.ar    1  UNL1        0.0000
     22 C          -0.8839    0.2465   -1.9001 C.ar    1  UNL1        0.0000
     23 C          -0.6869   -4.0540   -1.5850 C.3     1  UNL1        0.0000
     24 C          -0.9719    1.0463    0.5303 C.3     1  UNL1        0.0000
     25 C           0.7787    0.7703   -1.8613 C.3     1  UNL1        0.0000
     26 C          -1.1555    0.3871    0.5090 C.3     1  UNL1        0.0000
     27 C          -2.9163   -0.5910    0.3960 C.3     1  UNL1        0.0000
     28 C           2.1196   -0.0693    2.3565 C.3     1  UNL1        0.0000
     29 C           1.6628    1.1913    2.4796 C.3     1  UNL1        0.0000
     30 C          -2.0147   -1.8480    0.3640 C.3     1  UNL1        0.0000
     31 C          -0.8676    0.2741   -1.9039 C.ar    1  UNL1        0.0000
     32 N          -2.5831    2.7914    0.3402 N.ar    1  UNL1        0.0000
     33 N          -0.2485    1.3431    2.5465 N.ar    1  UNL1        0.0000
     34 C           0.1834   -0.0926    1.2192 C.ar    1  UNL1        0.0000
     35 C           0.5055    1.1725   -0.2711 C.ar    1  UNL1        0.0000
     36 H          -1.4245    0.4275    3.1296 H       1  UNL1        0.0000
     37 H          -0.7377   -4.1248    1.8322 H       1  UNL1        0.0000
     38 H          -0.4335    2.2087    3.5938 H       1  UNL1        0.0000
     39 H          -0.5269   -2.2760   -2.9411 H       1  UNL1        0.0000
     40 H          -3.1830   -0.5826    1.7622 H       1  UNL1        0.0000
     41 H           2.7859   -2.3575    2.5666 H       1  UNL1        0.0000
     42 H          -3.2414   -0.6356   -1.0670 H       1  UNL1        0.0000
     43 H          -0.7084    1.5518   -4.3477 H       1  UNL1        0.0000
     44 H           2.0345    1.6408   -1.2510 H       1  UNL1        0.0000
     45 H           1.5511   -1.5269    0.2903 H       1  UNL1        0.0000
     46 H          -1.6854   -0.9032    3.4727 H       1  UNL1        0.0000
     47 H           0.7685   -2.9211   -3.3912 H       1  UNL1        0.0000
     48 H           4.1438   -1.1042   -1.8622 H       1  UNL1        0.0000
     49 H          -0.7240    1.1670    4.5314 H       1  UNL1        0.0000
     50 H          -1.2364   -2.2874    1.7023 H       1  UNL1        0.0000
     51 H          -1.0954   -1.3472   -1.8429 H       1  UNL1        0.0000
     52 H          -0.9855    3.3341   -1.1807 H       1  UNL1        0.0000
     53 H           0.4916   -3.3507   -2.1963 H       1  UNL1        0.0000
     54 H          -1.1918    2.1776   -0.6078 H       1  UNL1        0.0000
     55 H           1.4630   -1.9792   -0.9330 H       1  UNL1        0.0000
     56 H           3.1726    0.5835    0.7730 H       1  UNL1        0.0000
     57 H           0.5598   -1.7126   -3.6897 H       1  UNL1        0.0000
     58 H          -1.6715   -1.8697   -3.4149 H       1  UNL1        0.0000
     59 H           0.7491   -0.8519    2.5452 H       1  UNL1        0.0000
     60 H          -2.7244    2.3011   -1.1067 H       1  UNL1        0.0000
     61 H           0.7963    1.1918   -3.5355 H       1  UNL1        0.0000
     62 H           1.8326    1.5019   -4.4285 H       1  UNL1        0.0000
     63 H           1.0008    3.8335   -0.5191 H       1  UNL1        0.0000
     64 H           2.6355   -0.5672   -0.3160 H       1  UNL1        0.0000
     65 H          -1.9033   -3.5630    1.9206 H       1  UNL1        0.0000
     66 H          -1.6099    1.2379    1.8764 H       1  UNL1        0.0000
     67 H           2.8308    1.7554    1.4564 H       1  UNL1        0.0000
     68 EU          1.5482    1.9503    0.3314 Eu      1  UNL1        0.0000
@<TRIPOS>BOND
     1     1     2    2
     2     2     3   am
     3     3     4    1
     4     3     5    1
     5     5     6    1
     6     6     7    1
     7     2     8    1
     8     8     9   ar
     9     9    10   ar
    10     8    11   ar
    11    11    12   ar
    12    12    13   ar
    13    10    13   ar
    14    13    14   ar
    15    14    15   ar
    16    15    16   ar
    17    16    17   ar
    18    12    17   ar
    19    17    18   ar
    20    18    19   ar
    21    19    20    1
    22    20    21   ar
    23    21    22   ar
    24    22    23    1
    25    23    24    1
    26    23    25    1
    27    23    26    1
    28    26    27    1
    29    27    28    1
    30    28    29    1
    31    28    30    1
    32    22    31   ar
    33    28    31    1
    34    31    32   ar
    35    32    33   ar
    36    20    33   ar
    37    19    34   ar
    38    34    35   ar
    39    16    35   ar
    40     4    36    1
    41     4    37    1
    42     4    38    1
    43     5    39    1
    44     5    40    1
    45     6    41    1
    46     6    42    1
    47     7    43    1
    48     7    44    1
    49     7    45    1
    50     9    46    1
    51    10    47    1
    52    14    48    1
    53    15    49    1
    54    24    50    1
    55    24    51    1
    56    24    52    1
    57    25    53    1
    58    25    54    1
    59    25    55    1
    60    26    56    1
    61    26    57    1
    62    27    58    1
    63    27    59    1
    64    29    60    1
    65    29    61    1
    66    29    62    1
    67    30    63    1
    68    30    64    1
    69    30    65    1
    70    34    66    1
    71    35    67    1
    72    68     1    1
    73    68    33    1
    74    68    18    1
    75    68    11    1
@<TRIPOS>MOLECULE
*****
 68 75 0 0 0
SMALL
GASTEIGER

@<TRIPOS>ATOM
      1 O           0.7011   -0.5707   -1.2148 O.2     1  UNL1        0.0000
      2 C          -1.7947   -0.2884   -0.7075 C.2     1  UNL1        0.0000
      3 N          -0.5811   -1.4974    2.9097 N.am    1  UNL1        0.0000
      4 C          -2.5809   -1.8211    2.7604 C.3     1  UNL1        0.0000
      5 C          -0.3658   -1.8528    2.8408 C.3     1  UNL1        0.0000
      6 C           1.9980   -2.4911    2.6725 C.3     1  UNL1        0.0000
      7 C          -1.6248   -3.5688    0.0813 C.3     1  UNL1        0.0000
      8 C          -0.3639    2.6617    0.5639 C.ar    1  UNL1        0.0000
      9 C           1.6698    0.7128    0.8387 C.ar    1  UNL1        0.0000
     10 C          -0.0736    0.1345   -4.0663 C.ar    1  UNL1        0.0000
     11 N           0.2046    2.7451   -0.6262 N.ar    1  UNL1        0.0000
     12 C           0.9528    2.3280   -2.2111 C.ar    1  UNL1        0.0000
     13 C          -1.4218    1.0774   -3.2184 C.ar    1  UNL1        0.0000
     14 C          -0.0975   -2.4476    0.0829 C.ar    1  UNL1        0.0000
     15 C          -0.1963   -2.4704    0.0689 C.ar    1  UNL1        0.0000
     16 C           0.2640   -1.2388   -2.3757 C.ar    1  UNL1        0.0000
     17 C           1.7527   -1.1962   -2.1587 C.ar    1  UNL1        0.0000
     18 N           0.6801   -0.7907    1.1131 N.ar    1  UNL1        0.0000
     19 C           0.1178   -0.8027    1.1209 C.ar    1  UNL1        0.0000
     20 C          -1.2371   -0.6165    1.7857 C.ar    1  UNL1        0.0000
     21 N          -2.4603    1.1795   -0.1691 N.ar    1  UNL1        0.0000
     22 C          -0.8839    0.2465   -1.9001 C.ar    1  UNL1        0.0000
     23 C          -0.6869   -4.0540   -1.5850 C.3     1  UNL1        0.0000
     24 C          -0.9719    1.0463    0.5303 C.3     1  UNL1        0.0000
     25 C           0.7787    0.7703   -1.8613 C.3     1  UNL1        0.0000
     26 C          -1.1555    0.3871    0.5090 C.3     1  UNL1        0.0000
     27 C          -2.9163   -0.5910    0.3960 C.3     1  UNL1        0.0000
     28 C           2.1196   -0.0693    2.3565 C.3     1  UNL1        0.0000
     29 C           1.6628    1.1913    2.4796 C.3     1  UNL1        0.0000
     30 C          -2.0147   -1.8480    0.3640 C.3     1  UNL1        0.0000
     31 C          -0.8676    0.2741   -1.9039 C.ar    1  UNL1        0.0000
     32 N          -2.5831    2.7914    0.3402 N.ar    1  UNL1        0.0000
     33 N          -0.2485    1.3431    2.5465 N.ar    1  UNL1        0.0000
     34 C           0.1834   -0.0926    1.2192 C.ar    1  UNL1        0.0000
     35 C           0.5055    1.1725   -0.2711 C.ar    1  UNL1        0.0000
     36 H          -1.4245    0.4275    3.1296 H       1  UNL1        0.0000
     37 H          -0.7377   -4.1248    1.8322 H       1  UNL1        0.0000
     38 H          -0.4335    2.2087    3.5938 H       1  UNL1        0.0000
     39 H          -0.5269   -2.2760   -2.9411 H       1  UNL1        0.0000
     40 H          -3.1830   -0.5826    1.7622 H       1  UNL1        0.0000
     41 H           2.7859   -2.3575    2.5666 H       1  UNL1        0.0000
     42 H          -3.2414   -0.6356   -1.0670 H       1  UNL1        0.0000
     43 H          -0.7084    1.5518   -4.3477 H       1  UNL1        0.0000
     44 H           2.0345    1.6408   -1.2510 H       1  UNL1        0.0000
     45 H           1.5511   -1.5269    0.2903 H       1  UNL1        0.0000
     46 H          -1.6854   -0.9032    3.4727 H       1  UNL1        0.0000
     47 H           0.7685   -2.9211   -3.3912 H       1  UNL1        0.0000
     48 H           4.1438   -1.1042   -1.8622 H       1  UNL1        0.0000
     49 H          -0.7240    1.1670    4.5314 H       1  UNL1        0.0000
     50 H          -1.2364   -2.2874    1.7023 H       1  UNL1        0.0000
     51 H          -1.0954   -1.3472   -1.8429 H       1  UNL1        0.0000
     52 H          -0.9855    3.3341   -1.1807 H       1  UNL1        0.0000
     53 H           0.4916   -3.3507   -2.1963 H       1  UNL1        0.0000
     54 H          -1.1918    2.1776   -0.6078 H       1  UNL1        0.0000
     55 H           1.4630   -1.9792   -0.9330 H       1  UNL1        0.0000
     56 H           3.1726    0.5835    0.7730 H       1  UNL1        0.0000
     57 H           0.5598   -1.7126   -3.6897 H       1  UNL1        0.0000
     58 H          -1.6715   -1.8697   -3.4149 H       1  UNL1        0.0000
     59 H           0.7491   -0.8519    2.5452 H       1  UNL1        0.0000
     60 H          -2.7244    2.3011   -1.1067 H       1  UNL1        0.0000
     61 H           0.7963    1.1918   -3.5355 H       1  UNL1        0.0000
     62 H           1.8326    1.5019   -4.4285 H       1  UNL1        0.0000
     63 H           1.0008    3.8335   -0.5191 H       1  UNL1        0.0000
     64 H           2.6355   -0.5672   -0.3160 H       1  UNL1        0.0000
     65 H          -1.9033   -3.5630    1.9206 H       1  UNL1        0.0000
     66 H          -1.6099    1.2379    1.8764 H       1  UNL1        0.0000
     67 H           2.8308    1.7554    1.4564 H       1  UNL1        0.0000
     68 EU          1.5482    1.9503    0.3314 Eu      1  UNL1        0.0000
@<TRIPOS>BOND
     1     1     2    2
     2     2     3   am
     3     3     4    1
     4     3     5    1
     5     5     6    1
     6     6     7    1
     7     2     8    1
     8     8     9   ar
     9     9    10   ar
    10     8    11   ar
    11    11    12   ar
    12    12    13   ar
    13    10    13   ar
    14    13    14   ar
    15    14    15   ar
    16    15    16   ar
    17    16    17   ar
    18    12    17   ar
    19    17    18   ar
    20    18    19   ar
    21    19    20    1
    22    20    21   ar
    23    21    22   ar
    24    22    23    1
    25    23    24    1
    26    23    25    1
    27    23    26    1
    28    26    27    1
    29    27    28    1
    30    28    29    1
    31    28    30    1
    32    22    31   ar
    33    28    31    1
    34    31    32   ar
    35    32    33   ar
    36    20    33   ar
    37    19    34   ar
    38    34    35   ar
    39    16    35   ar
    40     4    36    1
    41     4    37    1
    42     4    38    1
    43     5    39    1
    44     5    40    1
    45     6    41    1
    46     6    42    1
    47     7    43    1
    48     7    44    1
    49     7    45    1
    50     9    46    1
    51    10    47    1
    52    14    48    1
    53    15    49    1
    54    24    50    1
    55    24    51    1
    56    24    52    1
    57    25    53    1
    58    25    54    1
    59    25    55    1
    60    26    56    1
    61    26    57    1
    62    27    58    1
    63    27    59    1
    64    29    60    1
    65    29    61    1
    66    29    62    1
    67    30    63    1
    68    30    64    1
    69    30    65    1
    70    34    66    1
    71    35    67    1
    72    68     1    1
    73    68    33    1
    74    68    18    1
    75    68    11    1
@<TRIPOS>MOLECULE
*****
 68 75 0 0 0
SMALL
GASTEIGER

@<TRIPOS>ATOM
      1 O           0.7011   -0.5707   -1.2148 O.2     1  UNL1        0.0000
      2 C          -1.7947   -0.2884   -0.7075 C.2     1  UNL1        0.0000
      3 N          -0.5811   -1.4974    2.9097 N.am    1  UNL1        0.0000
      4 C          -2.5809   -1.8211    2.7604 C.3     1  UNL1        0.0000
      5 C          -0.3658   -1.8528    2.8408 C.3     1  UNL1        0.0000
      6 C           1.9980   -2.4911    2.6725 C.3     1  UNL1        0.0000
      7 C          -1.6248   -3.5688    0.0813 C.3     1  UNL1        0.0000
      8 C          -0.3639    2.6617    0.5639 C.ar    1  UNL1        0.0000
      9 C           1.6698    0.7128    0.8387 C.ar    1  UNL1        0.0000
     10 C          -0.0736    0.1345   -4.0663 C.ar    1  UNL1        0.0000
     11 N           0.2046    2.7451   -0.6262 N.ar    1  UNL1        0.0000
     12 C           0.9528    2.3280   -2.2111 C.ar    1  UNL1        0.0000
     13 C          -1.4218    1.0774   -3.2184 C.ar    1  UNL1        0.0000
     14 C          -0.0975   -2.4476    0.0829 C.ar    1  UNL1        0.0000
     15 C          -0.1963   -2.4704    0.0689 C.ar    1  UNL1        0.0000
     16 C           0.2640   -1.2388   -2.3757 C.ar    1  UNL1        0.0000
     17 C           1.7527   -1.1962   -2.1587 C.ar    1  UNL1        0.0000
     18 N           0.6801   -0.7907    1.1131 N.ar    1  UNL1        0.0000
     19 C           0.1178   -0.8027    1.1209 C.ar    1  UNL1        0.0000
     20 C          -1.2371   -0.6165    1.7857 C.ar    1  UNL1        0.0000
     21 N          -2.4603    1.1795   -0.1691 N.ar    1  UNL1        0.0000
     22 C          -0.8839    0.2465   -1.9001 C.ar    1  UNL1        0.0000
     23 C          -0.6869   -4.0540   -1.5850 C.3     1  UNL1        0.0000
     24 C          -0.9719    1.0463    0.5303 C.3     1  UNL1        0.0000
     25 C           0.7787    0.7703   -1.8613 C.3     1  UNL1        0.0000
     26 C          -1.1555    0.3871    0.5090 C.3     1  UNL1        0.0000
     27 C          -2.9163   -0.5910    0.3960 C.3     1  UNL1        0.0000
     28 C           2.1196   -0.0693    2.3565 C.3     1  UNL1        0.0000
     29 C           1.6628    1.1913    2.4796 C.3     1  UNL1        0.0000
     30 C          -2.0147   -1.8480    0.3640 C.3     1  UNL1        0.0000
     31 C          -0.8676    0.2741   -1.9039 C.ar    1  UNL1        0.0000
     32 N          -2.5831    2.7914    0.3402 N.ar    1  UNL1        0.0000
     33 N          -0.2485    1.3431    2.5465 N.ar    1  UNL1        0.0000
     34 C           0.1834   -0.0926    1.2192 C.ar    1  UNL1        0.0000
     35 C           0.5055    1.1725   -0.2711 C.ar    1  UNL1        0.0000
     36 H          -1.4245    0.4275    3.1296 H       1  UNL1        0.0000
     37 H          -0.7377   -4.1248    1.8322 H       1  UNL1        0.0000
     38 H          -0.4335    2.2087    3.5938 H       1  UNL1        0.0000
     39 H          -0.5269   -2.2760   -2.9411 H       1  UNL1        0.0000
     40 H          -3.1830   -0.5826    1.7622 H       1  UNL1        0.0000
     41 H           2.7859   -2.3575    2.5666 H       1  UNL1        0.0000
     42 H          -3.2414   -0.6356   -1.0670 H       1  UNL1        0.0000
     43 H          -0.7084    1.5518   -4.3477 H       1  UNL1        0.0000
     44 H           2.0345    1.6408   -1.2510 H       1  UNL1        0.0000
     45 H           1.5511   -1.5269    0.2903 H       1  UNL1        0.0000
     46 H          -1.6854   -0.9032    3.4727 H       1  UNL1        0.0000
     47 H           0.7685   -2.9211   -3.3912 H       1  UNL1        0.0000
     48 H           4.1438   -1.1042   -1.8622 H       1  UNL1        0.0000
     49 H          -0.7240    1.1670    4.5314 H       1  UNL1        0.0000
     50 H          -1.2364   -2.2874    1.7023 H       1  UNL1        0.0000
     51 H          -1.0954   -1.3472   -1.8429 H       1  UNL1        0.0000
     52 H          -0.9855    3.3341   -1.1807 H       1  UNL1        0.0000
     53 H           0.4916   -3.3507   -2.1963 H       1  UNL1        0.0000
     54 H          -1.1918    2.1776   -0.6078 H       1  UNL1        0.0000
     55 H           1.4630   -1.9792   -0.9330 H       1  UNL1        0.0000
     56 H           3.1726    0.5835    0.7730 H       1  UNL1        0.0000
     57 H           0.5598   -1.7126   -3.6897 H       1  UNL1        0.0000
     58 H          -1.6715   -1.8697   -3.4149 H       1  UNL1        0.0000
     59 H           0.7491   -0.8519    2.5452 H       1  UNL1        0.0000
     60 H          -2.7244    2.3011   -1.1067 H       1  UNL1        0.0000
     61 H           0.7963    1.1918   -3.5355 H       1  UNL1        0.0000
     62 H           1.8326    1.5019   -4.4285 H       1  UNL1        0.0000
     63 H           1.0008    3.8335   -0.5191 H       1  UNL1        0.0000
     64 H           2.6355   -0.5672   -0.3160 H       1  UNL1        0.0000
     65 H          -1.9033   -3.5630    1.9206 H       1  UNL1        0.0000
     66 H          -1.6099    1.2379    1.8764 H       1  UNL1        0.0000
     67 H           2.8308    1.7554    1.4564 H       1  UNL1        0.0000
     68 EU          1.5482    1.9503    0.3314 Eu      1  UNL1        0.0000
@<TRIPOS>BOND
     1     1     2    2
     2     2     3   am
     3     3     4    1
     4     3     5    1
     5     5     6    1
     6     6     7    1
     7     2     8    1
     8     8     9   ar
     9     9    10   ar
    10     8    11   ar
    11    11    12   ar
    12    12    13   ar
    13    10    13   ar
    14    13    14   ar
    15    14    15   ar
    16    15    16   ar
    17    16    17   ar
    18    12    17   ar
    19    17    18   ar
    20    18    19   ar
    21    19    20    1
    22    20    21   ar
    23    21    22   ar
    24    22    23    1
    25    23    24    1
    26    23    25    1
    27    23    26    1
    28    26    27    1
    29    27    28    1
    30    28    29    1
    31    28    30    1
    32    22    31   ar
    33    28    31    1
    34    31    32   ar
    35    32    33   ar
    36    20    33   ar
    37    19    34   ar
    38    34    35   ar
    39    16    35   ar
    40     4    36    1
    41     4    37    1
    42     4    38    1
    43     5    39    1
    44     5    40    1
    45     6    41    1
    46     6    42    1
    47     7    43    1
    48     7    44    1
    49     7    45    1
    50     9    46    1
    51    10    47    1
    52    14    48    1
    53    15    49    1
    54    24    50    1
    55    24    51    1
    56    24    52    1
    57    25    53    1
    58    25    54    1
    59    25    55    1
    60    26    56    1
    61    26    57    1
    62    27    58    1
    63    27    59    1
    64    29    60    1
    65    29    61    1
    66    29    62    1
    67    30    63    1
    68    30    64    1
    69    30    65    1
    70    34    66    1
    71    35    67    1
    72    68     1    1
    73    68    33    1
    74    68    18    1
    75    68    11    1
@<TRIPOS>MOLECULE
*****
 68 75 0 0 0
SMALL
GASTEIGER

@<TRIPOS>ATOM
      1 O           0.7011   -0.5707   -1.2148 O.2     1  UNL1        0.0000
      2 C          -1.7947   -0.2884   -0.7075 C.2     1  UNL1        0.0000
      3 N          -0.5811   -1.4974    2.9097 N.am    1  UNL1        0.0000
      4 C          -2.5809   -1.8211    2.7604 C.3     1  UNL1        0.0000
      5 C          -0.3658   -1.8528    2.8408 C.3     1  UNL1        0.0000
      6 C           1.9980   -2.4911    2.6725 C.3     1  UNL1        0.0000
      7 C          -1.6248   -3.5688    0.0813 C.3     1  UNL1        0.0000
      8 C          -0.3639    2.6617    0.5639 C.ar    1  UNL1        0.0000
      9 C           1.6698    0.7128    0.8387 C.ar    1  UNL1        0.0000
     10 C          -0.0736    0.1345   -4.0663 C.ar    1  UNL1        0.0000
     11 N           0.2046    2.7451   -0.6262 N.ar    1  UNL1        0.0000
     12 C           0.9528    2.3280   -2.2111 C.ar    1  UNL1        0.0000
     13 C          -1.4218    1.0774   -3.2184 C.ar    1  UNL1        0.0000
     14 C          -0.0975   -2.4476    0.0829 C.ar    1  UNL1        0.0000
     15 C          -0.1963   -2.4704    0.0689 C.ar    1  UNL1        0.0000
     16 C           0.2640   -1.2388   -2.3757 C.ar    1  UNL1        0.0000
     17 C           1.7527   -1.1962   -2.1587 C.ar    1  UNL1        0.0000
     18 N           0.6801   -0.7907    1.1131 N.ar    1  UNL1        0.0000
     19 C           0.1178   -0.8027    1.1209 C.ar    1  UNL1        0.0000
     20 C          -1.2371   -0.6165    1.7857 C.ar    1  UNL1        0.0000
     21 N          -2.4603    1.1795   -0.1691 N.ar    1  UNL1        0.0000
     22 C          -0.8839    0.2465   -1.9001 C.ar    1  UNL1        0.0000
     23 C          -0.6869   -4.0540   -1.5850 C.3     1  UNL1        0.0000
     24 C          -0.9719    1.0463    0.5303 C.3     1  UNL1        0.0000
     25 C           0.7787    0.7703   -1.8613 C.3     1  UNL1        0.0000
     26 C          -1.1555    0.3871    0.5090 C.3     1  UNL1        0.0000
     27 C          -2.9163   -0.5910    0.3960 C.3     1  UNL1        0.0000
     28 C           2.1196   -0.0693    2.3565 C.3     1  UNL1        0.0000
     29 C           1.6628    1.1913    2.4796 C.3     1  UNL1        0.0000
     30 C          -2.0147   -1.8480    0.3640 C.3     1  UNL1        0.0000
     31 C          -0.8676    0.2741   -1.9039 C.ar    1  UNL1        0.0000
     32 N          -2.5831    2.7914    0.3402 N.ar    1  UNL1        0.0000
     33 N          -0.2485    1.3431    2.5465 N.ar    1  UNL1        0.0000
     34 C           0.1834   -0.0926    1.2192 C.ar    1  UNL1        0.0000
     35 C           0.5055    1.1725   -0.2711 C.ar    1  UNL1        0.0000
     36 H          -1.4245    0.4275    3.1296 H       1  UNL1        0.0000
     37 H          -0.7377   -4.1248    1.8322 H       1  UNL1        0.0000
     38 H          -0.4335    2.2087    3.5938 H       1  UNL1        0.0000
     39 H          -0.5269   -2.2760   -2.9411 H       1  UNL1        0.0000
     40 H          -3.1830   -0.5826    1.7622 H       1  UNL1        0.0000
     41 H           2.7859   -2.3575    2.5666 H       1  UNL1        0.0000
     42 H          -3.2414   -0.6356   -1.0670 H       1  UNL1        0.0000
     43 H          -0.7084    1.5518   -4.3477 H       1  UNL1        0.0000
     44 H           2.0345    1.6408   -1.2510 H       1  UNL1        0.0000
     45 H           1.5511   -1.5269    0.2903 H       1  UNL1        0.0000
     46 H          -1.6854   -0.9032    3.4727 H       1  UNL1        0.0000
     47 H           0.7685   -2.9211   -3.3912 H       1  UNL1        0.0000
     48 H           4.1438   -1.1042   -1.8622 H       1  UNL1        0.0000
     49 H          -0.7240    1.1670    4.5314 H       1  UNL1        0.0000
     50 H          -1.2364   -2.2874    1.7023 H       1  UNL1        0.0000
     51 H          -1.0954   -1.3472   -1.8429 H       1  UNL1        0.0000
     52 H          -0.9855    3.3341   -1.1807 H       1  UNL1        0.0000
     53 H           0.4916   -3.3507   -2.1963 H       1  UNL1        0.0000
     54 H          -1.1918    2.1776   -0.6078 H       1  UNL1        0.0000
     55 H           1.4630   -1.9792   -0.9330 H       1  UNL1        0.0000
     56 H           3.1726    0.5835    0.7730 H       1  UNL1        0.0000
     57 H           0.5598   -1.7126   -3.6897 H       1  UNL1        0.0000
     58 H          -1.6715   -1.8697   -3.4149 H       1  UNL1        0.0000
     59 H           0.7491   -0.8519    2.5452 H       1  UNL1        0.0000
     60 H          -2.7244    2.3011   -1.1067 H       1  UNL1        0.0000
     61 H           0.7963    1.1918   -3.5355 H       1  UNL1        0.0000
     62 H           1.8326    1.5019   -4.4285 H       1  UNL1        0.0000
     63 H           1.0008    3.8335   -0.5191 H       1  UNL1        0.0000
     64 H           2.6355   -0.5672   -0.3160 H       1  UNL1        0.0000
     65 H          -1.9033   -3.5630    1.9206 H       1  UNL1        0.0000
     66 H          -1.6099    1.2379    1.8764 H       1  UNL1        0.0000
     67 H           2.8308    1.7554    1.4564 H       1  UNL1        0.0000
     68 EU          1.5482    1.9503    0.3314 Eu      1  UNL1        0.0000
@<TRIPOS>BOND
     1     1     2    2
     2     2     3   am
     3     3     4    1
     4     3     5    1
     5     5     6    1
     6     6     7    1
     7     2     8    1
     8     8     9   ar
     9     9    10   ar
    10     8    11   ar
    11    11    12   ar
    12    12    13   ar
    13    10    13   ar
    14    13    14   ar
    15    14    15   ar
    16    15    16   ar
    17    16    17   ar
    18    12    17   ar
    19    17    18   ar
    20    18    19   ar
    21    19    20    1
    22    20    21   ar
    23    21    22   ar
    24    22    23    1
    25    23    24    1
    26    23    25    1
    27    23    26    1
    28    26    27    1
    29    27    28    1
    30    28    29    1
    31    28    30    1
    32    22    31   ar
    33    28    31    1
    34    31    32   ar
    35    32    33   ar
    36    20    33   ar
    37    19    34   ar
    38    34    35   ar
    39    16    35   ar
    40     4    36    1
    41     4    37    1
    42     4    38    1
    43     5    39    1
    44     5    40    1
    45     6    41    1
    46     6    42    1
    47     7    43    1
    48     7    44    1
    49     7    45    1
    50     9    46    1
    51    10    47    1
    52    14    48    1
    53    15    49    1
    54    24    50    1
    55    24    51    1
    56    24    52    1
    57    25    53    1
    58    25    54    1
    59    25    55    1
    60    26    56    1
    61    26    57    1
    62    27    58    1
    63    27    59    1
    64    29    60    1
    65    29    61    1
    66    29    62    1
    67    30    63    1
    68    30    64    1
    69    30    65    1
    70    34    66    1
    71    35    67    1
    72    68     1    1
    73    68    33    1
    74    68    18    1
    75    68    11    1
@<TRIPOS>MOLECULE
*****
 68 75 0 0 0
SMALL
GASTEIGER

@<TRIPOS>ATOM
      1 O           0.7011   -0.5707   -1.2148 O.2     1  UNL1        0.0000
      2 C          -1.7947   -0.2884   -0.7075 C.2     1  UNL1        0.0000
      3 N          -0.5811   -1.4974    2.9097 N.am    1  UNL1        0.0000
      4 C          -2.5809   -1.8211    2.7604 C.3     1  UNL1        0.0000
      5 C          -0.3658   -1.8528    2.8408 C.3     1  UNL1        0.0000
      6 C           1.9980   -2.4911    2.6725 C.3     1  UNL1        0.0000
      7 C          -1.6248   -3.5688    0.0813 C.3     1  UNL1        0.0000
      8 C          -0.3639    2.6617    0.5639 C.ar    1  UNL1        0.0000
      9 C           1.6698    0.7128    0.8387 C.ar    1  UNL1        0.0000
     10 C          -0.0736    0.1345   -4.0663 C.ar    1  UNL1        0.0000
     11 N           0.2046    2.7451   -0.6262 N.ar    1  UNL1        0.0000
     12 C           0.9528    2.3280   -2.2111 C.ar    1  UNL1        0.0000
     13 C          -1.4218    1.0774   -3.2184 C.ar    1  UNL1        0.0000
     14 C          -0.0975   -2.4476    0.0829 C.ar    1  UNL1        0.0000
     15 C          -0.1963   -2.4704    0.0689 C.ar    1  UNL1        0.0000
     16 C           0.2640   -1.2388   -2.3757 C.ar    1  UNL1        0.0000
     17 C           1.7527   -1.1962   -2.1587 C.ar    1  UNL1        0.0000
     18 N           0.6801   -0.7907    1.1131 N.ar    1  UNL1        0.0000
     19 C           0.1178   -0.8027    1.1209 C.ar    1  UNL1        0.0000
     20 C          -1.2371   -0.6165    1.7857 C.ar    1  UNL1        0.0000
     21 N          -2.4603    1.1795   -0.1691 N.ar    1  UNL1        0.0000
     22 C          -0.8839    0.2465   -1.9001 C.ar    1  UNL1        0.0000
     23 C          -0.6869   -4.0540   -1.5850 C.3     1  UNL1        0.0000
     24 C          -0.9719    1.0463    0.5303 C.3     1  UNL1        0.0000
     25 C           0.7787    0.7703   -1.8613 C.3     1  UNL1        0.0000
     26 C          -1.1555    0.3871    0.5090 C.3     1  UNL1        0.0000
     27 C          -2.9163   -0.5910    0.3960 C.3     1  UNL1        0.0000
     28 C           2.1196   -0.0693    2.3565 C.3     1  UNL1        0.0000
     29 C           1.6628    1.1913    2.4796 C.3     1  UNL1        0.0000
     30 C          -2.0147   -1.8480    0.3640 C.3     1  UNL1        0.0000
     31 C          -0.8676    0.2741   -1.9039 C.ar    1  UNL1        0.0000
     32 N          -2.5831    2.7914    0.3402 N.ar    1  UNL1        0.0000
     33 N          -0.2485    1.3431    2.5465 N.ar    1  UNL1        0.0000
     34 C           0.1834   -0.0926    1.2192 C.ar    1  UNL1        0.0000
     35 C           0.5055    1.1725   -0.2711 C.ar    1  UNL1        0.0000
     36 H          -1.4245    0.4275    3.1296 H       1  UNL1        0.0000
     37 H          -0.7377   -4.1248    1.8322 H       1  UNL1        0.0000
     38 H          -0.4335    2.2087    3.5938 H       1  UNL1        0.0000
     39 H          -0.5269   -2.2760   -2.9411 H       1  UNL1        0.0000
     40 H          -3.1830   -0.5826    1.7622 H       1  UNL1        0.0000
     41 H           2.7859   -2.3575    2.5666 H       1  UNL1        0.0000
     42 H          -3.2414   -0.6356   -1.0670 H       1  UNL1        0.0000
     43 H          -0.7084    1.5518   -4.3477 H       1  UNL1        0.0000
     44 H           2.0345    1.6408   -1.2510 H       1  UNL1        0.0000
     45 H           1.5511   -1.5269    0.2903 H       1  UNL1        0.0000
     46 H          -1.6854   -0.9032    3.4727 H       1  UNL1        0.0000
     47 H           0.7685   -2.9211   -3.3912 H       1  UNL1        0.0000
     48 H           4.1438   -1.1042   -1.8622 H       1  UNL1        0.0000
     49 H          -0.7240    1.1670    4.5314 H       1  UNL1        0.0000
     50 H          -1.2364   -2.2874    1.7023 H       1  UNL1        0.0000
     51 H          -1.0954   -1.3472   -1.8429 H       1  UNL1        0.0000
     52 H          -0.9855    3.3341   -1.1807 H       1  UNL1        0.0000
     53 H           0.4916   -3.3507   -2.1963 H       1  UNL1        0.0000
     54 H          -1.1918    2.1776   -0.6078 H       1  UNL1        0.0000
     55 H           1.4630   -1.9792   -0.9330 H       1  UNL1        0.0000
     56 H           3.1726    0.5835    0.7730 H       1  UNL1        0.0000
     57 H           0.5598   -1.7126   -3.6897 H       1  UNL1        0.0000
     58 H          -1.6715   -1.8697   -3.4149 H       1  UNL1        0.0000
     59 H           0.7491   -0.8519    2.5452 H       1  UNL1        0.0000
     60 H          -2.7244    2.3011   -1.1067 H       1  UNL1        0.0000
     61 H           0.7963    1.1918   -3.5355 H       1  UNL1        0.0000
     62 H           1.8326    1.5019   -4.4285 H       1  UNL1        0.0000
     63 H           1.0008    3.8335   -0.5191 H       1  UNL1        0.0000
     64 H           2.6355   -0.5672   -0.3160 H       1  UNL1        0.0000
     65 H          -1.9033   -3.5630    1.9206 H       1  UNL1        0.0000
     66 H          -1.6099    1.2379    1.8764 H       1  UNL1        0.0000
     67 H           2.8308    1.7554    1.4564 H       1  UNL1        0.0000
     68 EU          1.5482    1.9503    0.3314 Eu      1  UNL1        0.0000
@<TRIPOS>BOND
     1     1     2    2
     2     2     3   am
     3     3     4    1
     4     3     5    1
     5     5     6    1
     6     6     7    1
     7     2     8    1
     8     8     9   ar
     9     9    10   ar
    10     8    11   ar
    11    11    12   ar
    12    12    13   ar
    13    10    13   ar
    14    13    14   ar
    15    14    15   ar
    16    15    16   ar
    17    16    17   ar
    18    12    17   ar
    19    17    18   ar
    20    18    19   ar
    21    19    20    1
    22    20    21   ar
    23    21    22   ar
    24    22    23    1
    25    23    24    1
    26    23    25    1
    27    23    26    1
    28    26    27    1
    29    27    28    1
    30    28    29    1
    31    28    30    1
    32    22    31   ar
    33    28    31    1
    34    31    32   ar
    35    32    33   ar
    36    20    33   ar
    37    19    34   ar
    38    34    35   ar
    39    16    35   ar
    40     4    36    1
    41     4    37    1
    42     4    38    1
    43     5    39    1
    44     5    40    1
    45     6    41    1
    46     6    42    1
    47     7    43    1
    48     7    44    1
    49     7    45    1
    50     9    46    1
    51    10    47    1
    52    14    48    1
    53    15    49    1
    54    24    50    1
    55    24    51    1
    56    24    52    1
    57    25    53    1
    58    25    54    1
    59    25    55    1
    60    26    56    1
    61    26    57    1
    62    27    58    1
    63    27    59    1
    64    29    60    1
    65    29    61    1
    66    29    62    1
    67    30    63    1
    68    30    64    1
    69    30    65    1
    70    34    66    1
    71    35    67    1
    72    68     1    1
    73    68    33    1
    74    68    18    1
    75    68    11    1
@<TRIPOS>MOLECULE
*****
 68 75 0 0 0
SMALL
GASTEIGER

@<TRIPOS>ATOM
      1 O           0.7011   -0.5707   -1.2148 O.2     1  UNL1        0.0000
      2 C          -1.7947   -0.2884   -0.7075 C.2     1  UNL1        0.0000
      3 N          -0.5811   -1.4974    2.9097 N.am    1  UNL1        0.0000
      4 C          -2.5809   -1.8211    2.7604 C.3     1  UNL1        0.0000
      5 C          -0.3658   -1.8528    2.8408 C.3     1  UNL1        0.0000
      6 C           1.9980   -2.4911    2.6725 C.3     1  UNL1        0.0000
      7 C          -1.6248   -3.5688    0.0813 C.3     1  UNL1        0.0000
      8 C          -0.3639    2.6617    0.5639 C.ar    1  UNL1        0.0000
      9 C           1.6698    0.7128    0.8387 C.ar    1  UNL1        0.0000
     10 C          -0.0736    0.1345   -4.0663 C.ar    1  UNL1        0.0000
     11 N           0.2046    2.7451   -0.6262 N.ar    1  UNL1        0.0000
     12 C           0.9528    2.3280   -2.2111 C.ar    1  UNL1        0.0000
     13 C          -1.4218    1.0774   -3.2184 C.ar    1  UNL1        0.0000
     14 C          -0.0975   -2.4476    0.0829 C.ar    1  UNL1        0.0000
     15 C          -0.1963   -2.4704    0.0689 C.ar    1  UNL1        0.0000
     16 C           0.2640   -1.2388   -2.3757 C.ar    1  UNL1        0.0000
     17 C           1.7527   -1.1962   -2.1587 C.ar    1  UNL1        0.0000
     18 N           0.6801   -0.7907    1.1131 N.ar    1  UNL1        0.0000
     19 C           0.1178   -0.8027    1.1209 C.ar    1  UNL1        0.0000
     20 C          -1.2371   -0.6165    1.7857 C.ar    1  UNL1        0.0000
     21 N          -2.4603    1.1795   -0.1691 N.ar    1  UNL1        0.0000
     22 C          -0.8839    0.2465   -1.9001 C.ar    1  UNL1        0.0000
     23 C          -0.6869   -4.0540   -1.5850 C.3     1  UNL1        0.0000
     24 C          -0.9719    1.0463    0.5303 C.3     1  UNL1        0.0000
     25 C           0.7787    0.7703   -1.8613 C.3     1  UNL1        0.0000
     26 C          -1.1555    0.3871    0.5090 C.3     1  UNL1        0.0000
     27 C          -2.9163   -0.5910    0.3960 C.3     1  UNL1        0.0000
     28 C           2.1196   -0.0693    2.3565 C.3     1  UNL1        0.0000
     29 C           1.6628    1.1913    2.4796 C.3     1  UNL1        0.0000
     30 C          -2.0147   -1.8480    0.3640 C.3     1  UNL1        0.0000
     31 C          -0.8676    0.2741   -1.9039 C.ar    1  UNL1        0.0000
     32 N          -2.5831    2.7914    0.3402 N.ar    1  UNL1        0.0000
     33 N          -0.2485    1.3431    2.5465 N.ar    1  UNL1        0.0000
     34 C           0.1834   -0.0926    1.2192 C.ar    1  UNL1        0.0000
     35 C           0.5055    1.1725   -0.2711 C.ar    1  UNL1        0.0000
     36 H          -1.4245    0.4275    3.1296 H       1  UNL1        0.0000
     37 H          -0.7377   -4.1248    1.8322 H       1  UNL1        0.0000
     38 H          -0.4335    2.2087    3.5938 H       1  UNL1        0.0000
     39 H          -0.5269   -2.2760   -2.9411 H       1  UNL1        0.0000
     40 H          -3.1830   -0.5826    1.7622 H       1  UNL1        0.0000
     41 H           2.7859   -2.3575    2.5666 H       1  UNL1        0.0000
     42 H          -3.2414   -0.6356   -1.0670 H       1  UNL1        0.0000
     43 H          -0.7084    1.5518   -4.3477 H       1  UNL1        0.0000
     44 H           2.0345    1.6408   -1.2510 H       1  UNL1        0.0000
     45 H           1.5511   -1.5269    0.2903 H       1  UNL1        0.0000
     46 H          -1.6854   -0.9032    3.4727 H       1  UNL1        0.0000
     47 H           0.7685   -2.9211   -3.3912 H       1  UNL1        0.0000
     48 H           4.1438   -1.1042   -1.8622 H       1  UNL1        0.0000
     49 H          -0.7240    1.1670    4.5314 H       1  UNL1        0.0000
     50 H          -1.2364   -2.2874    1.7023 H       1  UNL1        0.0000
     51 H          -1.0954   -1.3472   -1.8429 H       1  UNL1        0.0000
     52 H          -0.9855    3.3341   -1.1807 H       1  UNL1        0.0000
     53 H           0.4916   -3.3507   -2.1963 H       1  UNL1        0.0000
     54 H          -1.1918    2.1776   -0.6078 H       1  UNL1        0.0000
     55 H           1.4630   -1.9792   -0.9330 H       1  UNL1        0.0000
     56 H           3.1726    0.5835    0.7730 H       1  UNL1        0.0000
     57 H           0.5598   -1.7126   -3.6897 H       1  UNL1        0.0000
     58 H          -1.6715   -1.8697   -3.4149 H       1  UNL1        0.0000
     59 H           0.7491   -0.8519    2.5452 H       1  UNL1        0.0000
     60 H          -2.7244    2.3011   -1.1067 H       1  UNL1        0.0000
     61 H           0.7963    1.1918   -3.5355 H       1  UNL1        0.0000
     62 H           1.8326    1.5019   -4.4285 H       1  UNL1        0.0000
     63 H           1.0008    3.8335   -0.5191 H       1  UNL1        0.0000
     64 H           2.6355   -0.5672   -0.3160 H       1  UNL1        0.0000
     65 H          -1.9033   -3.5630    1.9206 H       1  UNL1        0.0000
     66 H          -1.6099    1.2379    1.8764 H       1  UNL1        0.0000
     67 H           2.8308    1.7554    1.4564 H       1  UNL1        0.0000
     68 EU          1.5482    1.9503    0.3314 Eu      1  UNL1        0.0000
@<TRIPOS>BOND
     1     1     2    2
     2     2     3   am
     3     3     4    1
     4     3     5    1
     5     5     6    1
     6     6     7    1
     7     2     8    1
     8     8     9   ar
     9     9    10   ar
    10     8    11   ar
    11    11    12   ar
    12    12    13   ar
    13    10    13   ar
    14    13    14   ar
    15    14    15   ar
    16    15    16   ar
    17    16    17   ar
    18    12    17   ar
    19    17    18   ar
    20    18    19   ar
    21    19    20    1
    22    20    21   ar
    23    21    22   ar
    24    22    23    1
    25    23    24    1
    26    23    25    1
    27    23    26    1
    28    26    27    1
    29    27    28    1
    30    28    29    1
    31    28    30    1
    32    22    31   ar
    33    28    31    1
    34    31    32   ar
    35    32    33   ar
    36    20    33   ar
    37    19    34   ar
    38    34    35   ar
    39    16    35   ar
    40     4    36    1
    41     4    37    1
    42     4    38    1
    43     5    39    1
    44     5    40    1
    45     6    41    1
    46     6    42    1
    47     7    43    1
    48     7    44    1
    49     7    45    1
    50     9    46    1
    51    10    47    1
    52    14    48    1
    53    15    49    1
    54    24    50    1
    55    24    51    1
    56    24    52    1
    57    25    53    1
    58    25    54    1
    59    25    55    1
    60    26    56    1
    61    26    57    1
    62    27    58    1
    63    27    59    1
    64    29    60    1
    65    29    61    1
    66    29    62    1
    67    30    63    1
    68    30    64    1
    69    30    65    1
    70    34    66    1
    71    35    67    1
    72    68     1    1
    73    68    33    1
    74    68    18    1
    75    68    11    1
@<TRIPOS>MOLECULE
*****
 68 75 0 0 0
SMALL
GASTEIGER

@<TRIPOS>ATOM
      1 O           0.7011   -0.5707   -1.2148 O.2     1  UNL1        0.0000
      2 C          -1.7947   -0.2884   -0.7075 C.2     1  UNL1        0.0000
      3 N          -0.5811   -1.4974    2.9097 N.am    1  UNL1        0.0000
      4 C          -2.5809   -1.8211    2.7604 C.3     1  UNL1        0.0000
      5 C          -0.3658   -1.8528    2.8408 C.3     1  UNL1        0.0000
      6 C           1.9980   -2.4911    2.6725 C.3     1  UNL1        0.0000
      7 C          -1.6248   -3.5688    0.0813 C.3     1  UNL1        0.0000
      8 C          -0.3639    2.6617    0.5639 C.ar    1  UNL1        0.0000
      9 C           1.6698    0.7128    0.8387 C.ar    1  UNL1        0.0000
     10 C          -0.0736    0.1345   -4.0663 C.ar    1  UNL1        0.0000
     11 N           0.2046    2.7451   -0.6262 N.ar    1  UNL1        0.0000
     12 C           0.9528    2.3280   -2.2111 C.ar    1  UNL1        0.0000
     13 C          -1.4218    1.0774   -3.2184 C.ar    1  UNL1        0.0000
     14 C          -0.0975   -2.4476    0.0829 C.ar    1  UNL1        0.0000
     15 C          -0.1963   -2.4704    0.0689 C.ar    1  UNL1        0.0000
     16 C           0.2640   -1.2388   -2.3757 C.ar    1  UNL1        0.0000
     17 C           1.7527   -1.1962   -2.1587 C.ar    1  UNL1        0.0000
     18 N           0.6801   -0.7907    1.1131 N.ar    1  UNL1        0.0000
     19 C           0.1178   -0.8027    1.1209 C.ar    1  UNL1        0.0000
     20 C          -1.2371   -0.6165    1.7857 C.ar    1  UNL1        0.0000
     21 N          -2.4603    1.1795   -0.1691 N.ar    1  UNL1        0.0000
     22 C          -0.8839    0.2465   -1.9001 C.ar    1  UNL1        0.0000
     23 C          -0.6869   -4.0540   -1.5850 C.3     1  UNL1        0.0000
     24 C          -0.9719    1.0463    0.5303 C.3     1  UNL1        0.0000
     25 C           0.7787    0.7703   -1.8613 C.3     1  UNL1        0.0000
     26 C          -1.1555    0.3871    0.5090 C.3     1  UNL1        0.0000
     27 C          -2.9163   -0.5910    0.3960 C.3     1  UNL1        0.0000
     28 C           2.1196   -0.0693    2.3565 C.3     1  UNL1        0.0000
     29 C           1.6628    1.1913    2.4796 C.3     1  UNL1        0.0000
     30 C          -2.0147   -1.8480    0.3640 C.3     1  UNL1        0.0000
     31 C          -0.8676    0.2741   -1.9039 C.ar    1  UNL1        0.0000
     32 N          -2.5831    2.7914    0.3402 N.ar    1  UNL1        0.0000
     33 N          -0.2485    1.3431    2.5465 N.ar    1  UNL1        0.0000
     34 C           0.1834   -0.0926    1.2192 C.ar    1  UNL1        0.0000
     35 C           0.5055    1.1725   -0.2711 C.ar    1  UNL1        0.0000
     36 H          -1.4245    0.4275    3.1296 H       1  UNL1        0.0000
     37 H          -0.7377   -4.1248    1.8322 H       1  UNL1        0.0000
     38 H          -0.4335    2.2087    3.5938 H       1  UNL1        0.0000
     39 H          -0.5269   -2.2760   -2.9411 H       1  UNL1        0.0000
     40 H          -3.1830   -0.5826    1.7622 H       1  UNL1        0.0000
     41 H           2.7859   -2.3575    2.5666 H       1  UNL1        0.0000
     42 H          -3.2414   -0.6356   -1.0670 H       1  UNL1        0.0000
     43 H          -0.7084    1.5518   -4.3477 H       1  UNL1        0.0000
     44 H           2.0345    1.6408   -1.2510 H       1  UNL1        0.0000
     45 H           1.5511   -1.5269    0.2903 H       1  UNL1        0.0000
     46 H          -1.6854   -0.9032    3.4727 H       1  UNL1        0.0000
     47 H           0.7685   -2.9211   -3.3912 H       1  UNL1        0.0000
     48 H           4.1438   -1.1042   -1.8622 H       1  UNL1        0.0000
     49 H          -0.7240    1.1670    4.5314 H       1  UNL1        0.0000
     50 H          -1.2364   -2.2874    1.7023 H       1  UNL1        0.0000
     51 H          -1.0954   -1.3472   -1.8429 H       1  UNL1        0.0000
     52 H          -0.9855    3.3341   -1.1807 H       1  UNL1        0.0000
     53 H           0.4916   -3.3507   -2.1963 H       1  UNL1        0.0000
     54 H          -1.1918    2.1776   -0.6078 H       1  UNL1        0.0000
     55 H           1.4630   -1.9792   -0.9330 H       1  UNL1        0.0000
     56 H           3.1726    0.5835    0.7730 H       1  UNL1        0.0000
     57 H           0.5598   -1.7126   -3.6897 H       1  UNL1        0.0000
     58 H          -1.6715   -1.8697   -3.4149 H       1  UNL1        0.0000
     59 H           0.7491   -0.8519    2.5452 H       1  UNL1        0.0000
     60 H          -2.7244    2.3011   -1.1067 H       1  UNL1        0.0000
     61 H           0.7963    1.1918   -3.5355 H       1  UNL1        0.0000
     62 H           1.8326    1.5019   -4.4285 H       1  UNL1        0.0000
     63 H           1.0008    3.8335   -0.5191 H       1  UNL1        0.0000
     64 H           2.6355   -0.5672   -0.3160 H       1  UNL1        0.0000
     65 H          -1.9033   -3.5630    1.9206 H       1  UNL1        0.0000
     66 H          -1.6099    1.2379    1.8764 H       1  UNL1        0.0000
     67 H           2.8308    1.7554    1.4564 H       1  UNL1        0.0000
     68 EU          1.5482    1.9503    0.3314 Eu      1  UNL1        0.0000
@<TRIPOS>BOND
     1     1     2    2
     2     2     3   am
     3     3     4    1
     4     3     5    1
     5     5     6    1
     6     6     7    1
     7     2     8    1
     8     8     9   ar
     9     9    10   ar
    10     8    11   ar
    11    11    12   ar
    12    12    13   ar
    13    10    13   ar
    14    13    14   ar
    15    14    15   ar
    16    15    16   ar
    17    16    17   ar
    18    12    17   ar
    19    17    18   ar
    20    18    19   ar
    21    19    20    1
    22    20    21   ar
    23    21    22   ar
    24    22    23    1
    25    23    24    1
    26    23    25    1
    27    23    26    1
    28    26    27    1
    29    27    28    1
    30    28    29    1
    31    28    30    1
    32    22    31   ar
    33    28    31    1
    34    31    32   ar
    35    32    33   ar
    36    20    33   ar
    37    19    34   ar
    38    34    35   ar
    39    16    35   ar
    40     4    36    1
    41     4    37    1
    42     4    38    1
    43     5    39    1
    44     5    40    1
    45     6    41    1
    46     6    42    1
    47     7    43    1
    48     7    44    1
    49     7    45    1
    50     9    46    1
    51    10    47    1
    52    14    48    1
    53    15    49    1
    54    24    50    1
    55    24    51    1
    56    24    52    1
    57    25    53    1
    58    25    54    1
    59    25    55    1
    60    26    56    1
    61    26    57    1
    62    27    58    1
    63    27    59    1
    64    29    60    1
    65    29    61    1
    66    29    62    1
    67    30    63    1
    68    30    64    1
    69    30    65    1
    70    34    66    1
    71    35    67    1
    72    68     1    1
    73    68    33    1
    74    68    18    1
    75    68    11    1
@<TRIPOS>MOLECULE
*****
 68 75 0 0 0
SMALL
GASTEIGER

@<TRIPOS>ATOM
      1 O           0.7011   -0.5707   -1.2148 O.2     1  UNL1        0.0000
      2 C          -1.7947   -0.2884   -0.7075 C.2     1  UNL1        0.0000
      3 N          -0.5811   -1.4974    2.9097 N.am    1  UNL1        0.0000
      4 C          -2.5809   -1.8211    2.7604 C.3     1  UNL1        0.0000
      5 C          -0.3658   -1.8528    2.8408 C.3     1  UNL1        0.0000
      6 C           1.9980   -2.4911    2.6725 C.3     1  UNL1        0.0000
      7 C          -1.6248   -3.5688    0.0813 C.3     1  UNL1        0.0000
      8 C          -0.3639    2.6617    0.5639 C.ar    1  UNL1        0.0000
      9 C           1.6698    0.7128    0.8387 C.ar    1  UNL1        0.0000
     10 C          -0.0736    0.1345   -4.0663 C.ar    1  UNL1        0.0000
     11 N           0.2046    2.7451   -0.6262 N.ar    1  UNL1        0.0000
     12 C           0.9528    2.3280   -2.2111 C.ar    1  UNL1        0.0000
     13 C          -1.4218    1.0774   -3.2184 C.ar    1  UNL1        0.0000
     14 C          -0.0975   -2.4476    0.0829 C.ar    1  UNL1        0.0000
     15 C          -0.1963   -2.4704    0.0689 C.ar    1  UNL1        0.0000
     16 C           0.2640   -1.2388   -2.3757 C.ar    1  UNL1        0.0000
     17 C           1.7527   -1.1962   -2.1587 C.ar    1  UNL1        0.0000
     18 N           0.6801   -0.7907    1.1131 N.ar    1  UNL1        0.0000
     19 C           0.1178   -0.8027    1.1209 C.ar    1  UNL1        0.0000
     20 C          -1.2371   -0.6165    1.7857 C.ar    1  UNL1        0.0000
     21 N          -2.4603    1.1795   -0.1691 N.ar    1  UNL1        0.0000
     22 C          -0.8839    0.2465   -1.9001 C.ar    1  UNL1        0.0000
     23 C          -0.6869   -4.0540   -1.5850 C.3     1  UNL1        0.0000
     24 C          -0.9719    1.0463    0.5303 C.3     1  UNL1        0.0000
     25 C           0.7787    0.7703   -1.8613 C.3     1  UNL1        0.0000
     26 C          -1.1555    0.3871    0.5090 C.3     1  UNL1        0.0000
     27 C          -2.9163   -0.5910    0.3960 C.3     1  UNL1        0.0000
     28 C           2.1196   -0.0693    2.3565 C.3     1  UNL1        0.0000
     29 C           1.6628    1.1913    2.4796 C.3     1  UNL1        0.0000
     30 C          -2.0147   -1.8480    0.3640 C.3     1  UNL1        0.0000
     31 C          -0.8676    0.2741   -1.9039 C.ar    1  UNL1        0.0000
     32 N          -2.5831    2.7914    0.3402 N.ar    1  UNL1        0.0000
     33 N          -0.2485    1.3431    2.5465 N.ar    1  UNL1        0.0000
     34 C           0.1834   -0.0926    1.2192 C.ar    1  UNL1        0.0000
     35 C           0.5055    1.1725   -0.2711 C.ar    1  UNL1        0.0000
     36 H          -1.4245    0.4275    3.1296 H       1  UNL1        0.0000
     37 H          -0.7377   -4.1248    1.8322 H       1  UNL1        0.0000
     38 H          -0.4335    2.2087    3.5938 H       1  UNL1        0.0000
     39 H          -0.5269   -2.2760   -2.9411 H       1  UNL1        0.0000
     40 H          -3.1830   -0.5826    1.7622 H       1  UNL1        0.0000
     41 H           2.7859   -2.3575    2.5666 H       1  UNL1        0.0000
     42 H          -3.2414   -0.6356   -1.0670 H       1  UNL1        0.0000
     43 H          -0.7084    1.5518   -4.3477 H       1  UNL1        0.0000
     44 H           2.0345    1.6408   -1.2510 H       1  UNL1        0.0000
     45 H           1.5511   -1.5269    0.2903 H       1  UNL1        0.0000
     46 H          -1.6854   -0.9032    3.4727 H       1  UNL1        0.0000
     47 H           0.7685   -2.9211   -3.3912 H       1  UNL1        0.0000
     48 H           4.1438   -1.1042   -1.8622 H       1  UNL1        0.0000
     49 H          -0.7240    1.1670    4.5314 H       1  UNL1        0.0000
     50 H          -1.2364   -2.2874    1.7023 H       1  UNL1        0.0000
     51 H          -1.0954   -1.3472   -1.8429 H       1  UNL1        0.0000
     52 H          -0.9855    3.3341   -1.1807 H       1  UNL1        0.0000
     53 H           0.4916   -3.3507   -2.1963 H       1  UNL1        0.0000
     54 H          -1.1918    2.1776   -0.6078 H       1  UNL1        0.0000
     55 H           1.4630   -1.9792   -0.9330 H       1  UNL1        0.0000
     56 H           3.1726    0.5835    0.7730 H       1  UNL1        0.0000
     57 H           0.5598   -1.7126   -3.6897 H       1  UNL1        0.0000
     58 H          -1.6715   -1.8697   -3.4149 H       1  UNL1        0.0000
     59 H           0.7491   -0.8519    2.5452 H       1  UNL1        0.0000
     60 H          -2.7244    2.3011   -1.1067 H       1  UNL1        0.0000
     61 H           0.7963    1.1918   -3.5355 H       1  UNL1        0.0000
     62 H           1.8326    1.5019   -4.4285 H       1  UNL1        0.0000
     63 H           1.0008    3.8335   -0.5191 H       1  UNL1        0.0000
     64 H           2.6355   -0.5672   -0.3160 H       1  UNL1        0.0000
     65 H          -1.9033   -3.5630    1.9206 H       1  UNL1        0.0000
     66 H          -1.6099    1.2379    1.8764 H       1  UNL1        0.0000
     67 H           2.8308    1.7554    1.4564 H       1  UNL1        0.0000
     68 EU          1.5482    1.9503    0.3314 Eu      1  UNL1        0.0000
@<TRIPOS>BOND
     1     1     2    2
     2     2     3   am
     3     3     4    1
     4     3     5    1
     5     5     6    1
     6     6     7    1
     7     2     8    1
     8     8     9   ar
     9     9    10   ar
    10     8    11   ar
    11    11    12   ar
    12    12    13   ar
    13    10    13   ar
    14    13    14   ar
    15    14    15   ar
    16    15    16   ar
    17    16    17   ar
    18    12    17   ar
    19    17    18   ar
    20    18    19   ar
    21    19    20    1
    22    20    21   ar
    23    21    22   ar
    24    22    23    1
    25    23    24    1
    26    23    25    1
    27    23    26    1
    28    26    27    1
    29    27    28    1
    30    28    29    1
    31    28    30    1
    32    22    31   ar
    33    28    31    1
    34    31    32   ar
    35    32    33   ar
    36    20    33   ar
    37    19    34   ar
    38    34    35   ar
    39    16    35   ar
    40     4    36    1
    41     4    37    1
    42     4    38    1
    43     5    39    1
    44     5    40    1
    45     6    41    1
    46     6    42    1
    47     7    43    1
    48     7    44    1
    49     7    45    1
    50     9    46    1
    51    10    47    1
    52    14    48    1
    53    15    49    1
    54    24    50    1
    55    24    51    1
    56    24    52    1
    57    25    53    1
    58    25    54    1
    59    25    55    1
    60    26    56    1
    61    26    57    1
    62    27    58    1
    63    27    59    1
    64    29    60    1
    65    29    61    1
    66    29    62    1
    67    30    63    1
    68    30    64    1
    69    30    65    1
    70    34    66    1
    71    35    67    1
    72    68     1    1
    73    68    33    1
    74    68    18    1
    75    68    11    1
@<TRIPOS>MOLECULE
*****
 68 75 0 0 0
SMALL
GASTEIGER

@<TRIPOS>ATOM
      1 O           0.7011   -0.5707   -1.2148 O.2     1  UNL1        0.0000
      2 C          -1.7947   -0.2884   -0.7075 C.2     1  UNL1        0.0000
      3 N          -0.5811   -1.4974    2.9097 N.am    1  UNL1        0.0000
      4 C          -2.5809   -1.8211    2.7604 C.3     1  UNL1        0.0000
      5 C          -0.3658   -1.8528    2.8408 C.3     1  UNL1        0.0000
      6 C           1.9980   -2.4911    2.6725 C.3     1  UNL1        0.0000
      7 C          -1.6248   -3.5688    0.0813 C.3     1  UNL1        0.0000
      8 C          -0.3639    2.6617    0.5639 C.ar    1  UNL1        0.0000
      9 C           1.6698    0.7128    0.8387 C.ar    1  UNL1        0.0000
     10 C          -0.0736    0.1345   -4.0663 C.ar    1  UNL1        0.0000
     11 N           0.2046    2.7451   -0.6262 N.ar    1  UNL1        0.0000
     12 C           0.9528    2.3280   -2.2111 C.ar    1  UNL1        0.0000
     13 C          -1.4218    1.0774   -3.2184 C.ar    1  UNL1        0.0000
     14 C          -0.0975   -2.4476    0.0829 C.ar    1  UNL1        0.0000
     15 C          -0.1963   -2.4704    0.0689 C.ar    1  UNL1        0.0000
     16 C           0.2640   -1.2388   -2.3757 C.ar    1  UNL1        0.0000
     17 C           1.7527   -1.1962   -2.1587 C.ar    1  UNL1        0.0000
     18 N           0.6801   -0.7907    1.1131 N.ar    1  UNL1        0.0000
     19 C           0.1178   -0.8027    1.1209 C.ar    1  UNL1        0.0000
     20 C          -1.2371   -0.6165    1.7857 C.ar    1  UNL1        0.0000
     21 N          -2.4603    1.1795   -0.1691 N.ar    1  UNL1        0.0000
     22 C          -0.8839    0.2465   -1.9001 C.ar    1  UNL1        0.0000
     23 C          -0.6869   -4.0540   -1.5850 C.3     1  UNL1        0.0000
     24 C          -0.9719    1.0463    0.5303 C.3     1  UNL1        0.0000
     25 C           0.7787    0.7703   -1.8613 C.3     1  UNL1        0.0000
     26 C          -1.1555    0.3871    0.5090 C.3     1  UNL1        0.0000
     27 C          -2.9163   -0.5910    0.3960 C.3     1  UNL1        0.0000
     28 C           2.1196   -0.0693    2.3565 C.3     1  UNL1        0.0000
     29 C           1.6628    1.1913    2.4796 C.3     1  UNL1        0.0000
     30 C          -2.0147   -1.8480    0.3640 C.3     1  UNL1        0.0000
     31 C          -0.8676    0.2741   -1.9039 C.ar    1  UNL1        0.0000
     32 N          -2.5831    2.7914    0.3402 N.ar    1  UNL1        0.0000
     33 N          -0.2485    1.3431    2.5465 N.ar    1  UNL1        0.0000
     34 C           0.1834   -0.0926    1.2192 C.ar    1  UNL1        0.0000
     35 C           0.5055    1.1725   -0.2711 C.ar    1  UNL1        0.0000
     36 H          -1.4245    0.4275    3.1296 H       1  UNL1        0.0000
     37 H          -0.7377   -4.1248    1.8322 H       1  UNL1        0.0000
     38 H          -0.4335    2.2087    3.5938 H       1  UNL1        0.0000
     39 H          -0.5269   -2.2760   -2.9411 H       1  UNL1        0.0000
     40 H          -3.1830   -0.5826    1.7622 H       1  UNL1        0.0000
     41 H           2.7859   -2.3575    2.5666 H       1  UNL1        0.0000
     42 H          -3.2414   -0.6356   -1.0670 H       1  UNL1        0.0000
     43 H          -0.7084    1.5518   -4.3477 H       1  UNL1        0.0000
     44 H           2.0345    1.6408   -1.2510 H       1  UNL1        0.0000
     45 H           1.5511   -1.5269    0.2903 H       1  UNL1        0.0000
     46 H          -1.6854   -0.9032    3.4727 H       1  UNL1        0.0000
     47 H           0.7685   -2.9211   -3.3912 H       1  UNL1        0.0000
     48 H           4.1438   -1.1042   -1.8622 H       1  UNL1        0.0000
     49 H          -0.7240    1.1670    4.5314 H       1  UNL1        0.0000
     50 H          -1.2364   -2.2874    1.7023 H       1  UNL1        0.0000
     51 H          -1.0954   -1.3472   -1.8429 H       1  UNL1        0.0000
     52 H          -0.9855    3.3341   -1.1807 H       1  UNL1        0.0000
     53 H           0.4916   -3.3507   -2.1963 H       1  UNL1        0.0000
     54 H          -1.1918    2.1776   -0.6078 H       1  UNL1        0.0000
     55 H           1.4630   -1.9792   -0.9330 H       1  UNL1        0.0000
     56 H           3.1726    0.5835    0.7730 H       1  UNL1        0.0000
     57 H           0.5598   -1.7126   -3.6897 H       1  UNL1        0.0000
     58 H          -1.6715   -1.8697   -3.4149 H       1  UNL1        0.0000
     59 H           0.7491   -0.8519    2.5452 H       1  UNL1        0.0000
     60 H          -2.7244    2.3011   -1.1067 H       1  UNL1        0.0000
     61 H           0.7963    1.1918   -3.5355 H       1  UNL1        0.0000
     62 H           1.8326    1.5019   -4.4285 H       1  UNL1        0.0000
     63 H           1.0008    3.8335   -0.5191 H       1  UNL1        0.0000
     64 H           2.6355   -0.5672   -0.3160 H       1  UNL1        0.0000
     65 H          -1.9033   -3.5630    1.9206 H       1  UNL1        0.0000
     66 H          -1.6099    1.2379    1.8764 H       1  UNL1        0.0000
     67 H           2.8308    1.7554    1.4564 H       1  UNL1        0.0000
     68 EU          1.5482    1.9503    0.3314 Eu      1  UNL1        0.0000
@<TRIPOS>BOND
     1     1     2    2
     2     2     3   am
     3     3     4    1
     4     3     5    1
     5     5     6    1
     6     6     7    1
     7     2     8    1
     8     8     9   ar
     9     9    10   ar
    10     8    11   ar
    11    11    12   ar
    12    12    13   ar
    13    10    13   ar
    14    13    14   ar
    15    14    15   ar
    16    15    16   ar
    17    16    17   ar
    18    12    17   ar
    19    17    18   ar
    20    18    19   ar
    21    19    20    1
    22    20    21   ar
    23    21    22   ar
    24    22    23    1
    25    23    24    1
    26    23    25    1
    27    23    26    1
    28    26    27    1
    29    27    28    1
    30    28    29    1
    31    28    30    1
    32    22    31   ar
    33    28    31    1
    34    31    32   ar
    35    32    33   ar
    36    20    33   ar
    37    19    34   ar
    38    34    35   ar
    39    16    35   ar
    40     4    36    1
    41     4    37    1
    42     4    38    1
    43     5    39    1
    44     5    40    1
    45     6    41    1
    46     6    42    1
    47     7    43    1
    48     7    44    1
    49     7    45    1
    50     9    46    1
    51    10    47    1
    52    14    48    1
    53    15    49    1
    54    24    50    1
    55    24    51    1
    56    24    52    1
    57    25    53    1
    58    25    54    1
    59    25    55    1
    60    26    56    1
    61    26    57    1
    62    27    58    1
    63    27    59    1
    64    29    60    1
    65    29    61    1
    66    29    62    1
    67    30    63    1
    68    30    64    1
    69    30    65    1
    70    34    66    1
    71    35    67    1
    72    68     1    1
    73    68    33    1
    74    68    18    1
    75    68    11    1
@<TRIPOS>MOLECULE
*****
 68 75 0 0 0
SMALL
GASTEIGER

@<TRIPOS>ATOM
      1 O           0.7011   -0.5707   -1.2148 O.2     1  UNL1        0.0000
      2 C          -1.7947   -0.2884   -0.7075 C.2     1  UNL1        0.0000
      3 N          -0.5811   -1.4974    2.9097 N.am    1  UNL1        0.0000
      4 C          -2.5809   -1.8211    2.7604 C.3     1  UNL1        0.0000
      5 C          -0.3658   -1.8528    2.8408 C.3     1  UNL1        0.0000
      6 C           1.9980   -2.4911    2.6725 C.3     1  UNL1        0.0000
      7 C          -1.6248   -3.5688    0.0813 C.3     1  UNL1        0.0000
      8 C          -0.3639    2.6617    0.5639 C.ar    1  UNL1        0.0000
      9 C           1.6698    0.7128    0.8387 C.ar    1  UNL1        0.0000
     10 C          -0.0736    0.1345   -4.0663 C.ar    1  UNL1        0.0000
     11 N           0.2046    2.7451   -0.6262 N.ar    1  UNL1        0.0000
     12 C           0.9528    2.3280   -2.2111 C.ar    1  UNL1        0.0000
     13 C          -1.4218    1.0774   -3.2184 C.ar    1  UNL1        0.0000
     14 C          -0.0975   -2.4476    0.0829 C.ar    1  UNL1        0.0000
     15 C          -0.1963   -2.4704    0.0689 C.ar    1  UNL1        0.0000
     16 C           0.2640   -1.2388   -2.3757 C.ar    1  UNL1        0.0000
     17 C           1.7527   -1.1962   -2.1587 C.ar    1  UNL1        0.0000
     18 N           0.6801   -0.7907    1.1131 N.ar    1  UNL1        0.0000
     19 C           0.1178   -0.8027    1.1209 C.ar    1  UNL1        0.0000
     20 C          -1.2371   -0.6165    1.7857 C.ar    1  UNL1        0.0000
     21 N          -2.4603    1.1795   -0.1691 N.ar    1  UNL1        0.0000
     22 C          -0.8839    0.2465   -1.9001 C.ar    1  UNL1        0.0000
     23 C          -0.6869   -4.0540   -1.5850 C.3     1  UNL1        0.0000
     24 C          -0.9719    1.0463    0.5303 C.3     1  UNL1        0.0000
     25 C           0.7787    0.7703   -1.8613 C.3     1  UNL1        0.0000
     26 C          -1.1555    0.3871    0.5090 C.3     1  UNL1        0.0000
     27 C          -2.9163   -0.5910    0.3960 C.3     1  UNL1        0.0000
     28 C           2.1196   -0.0693    2.3565 C.3     1  UNL1        0.0000
     29 C           1.6628    1.1913    2.4796 C.3     1  UNL1        0.0000
     30 C          -2.0147   -1.8480    0.3640 C.3     1  UNL1        0.0000
     31 C          -0.8676    0.2741   -1.9039 C.ar    1  UNL1        0.0000
     32 N          -2.5831    2.7914    0.3402 N.ar    1  UNL1        0.0000
     33 N          -0.2485    1.3431    2.5465 N.ar    1  UNL1        0.0000
     34 C           0.1834   -0.0926    1.2192 C.ar    1  UNL1        0.0000
     35 C           0.5055    1.1725   -0.2711 C.ar    1  UNL1        0.0000
     36 H          -1.4245    0.4275    3.1296 H       1  UNL1        0.0000
     37 H          -0.7377   -4.1248    1.8322 H       1  UNL1        0.0000
     38 H          -0.4335    2.2087    3.5938 H       1  UNL1        0.0000
     39 H          -0.5269   -2.2760   -2.9411 H       1  UNL1        0.0000
     40 H          -3.1830   -0.5826    1.7622 H       1  UNL1        0.0000
     41 H           2.7859   -2.3575    2.5666 H       1  UNL1        0.0000
     42 H          -3.2414   -0.6356   -1.0670 H       1  UNL1        0.0000
     43 H          -0.7084    1.5518   -4.3477 H       1  UNL1        0.0000
     44 H           2.0345    1.6408   -1.2510 H       1  UNL1        0.0000
     45 H           1.5511   -1.5269    0.2903 H       1  UNL1        0.0000
     46 H          -1.6854   -0.9032    3.4727 H       1  UNL1        0.0000
     47 H           0.7685   -2.9211   -3.3912 H       1  UNL1        0.0000
     48 H           4.1438   -1.1042   -1.8622 H       1  UNL1        0.0000
     49 H          -0.7240    1.1670    4.5314 H       1  UNL1        0.0000
     50 H          -1.2364   -2.2874    1.7023 H       1  UNL1        0.0000
     51 H          -1.0954   -1.3472   -1.8429 H       1  UNL1        0.0000
     52 H          -0.9855    3.3341   -1.1807 H       1  UNL1        0.0000
     53 H           0.4916   -3.3507   -2.1963 H       1  UNL1        0.0000
     54 H          -1.1918    2.1776   -0.6078 H       1  UNL1        0.0000
     55 H           1.4630   -1.9792   -0.9330 H       1  UNL1        0.0000
     56 H           3.1726    0.5835    0.7730 H       1  UNL1        0.0000
     57 H           0.5598   -1.7126   -3.6897 H       1  UNL1        0.0000
     58 H          -1.6715   -1.8697   -3.4149 H       1  UNL1        0.0000
     59 H           0.7491   -0.8519    2.5452 H       1  UNL1        0.0000
     60 H          -2.7244    2.3011   -1.1067 H       1  UNL1        0.0000
     61 H           0.7963    1.1918   -3.5355 H       1  UNL1        0.0000
     62 H           1.8326    1.5019   -4.4285 H       1  UNL1        0.0000
     63 H           1.0008    3.8335   -0.5191 H       1  UNL1        0.0000
     64 H           2.6355   -0.5672   -0.3160 H       1  UNL1        0.0000
     65 H          -1.9033   -3.5630    1.9206 H       1  UNL1        0.0000
     66 H          -1.6099    1.2379    1.8764 H       1  UNL1        0.0000
     67 H           2.8308    1.7554    1.4564 H       1  UNL1        0.0000
     68 EU          1.5482    1.9503    0.3314 Eu      1  UNL1        0.0000
@<TRIPOS>BOND
     1     1     2    2
     2     2     3   am
     3     3     4    1
     4     3     5    1
     5     5     6    1
     6     6     7    1
     7     2     8    1
     8     8     9   ar
     9     9    10   ar
    10     8    11   ar
    11    11    12   ar
    12    12    13   ar
    13    10    13   ar
    14    13    14   ar
    15    14    15   ar
    16    15    16   ar
    17    16    17   ar
    18    12    17   ar
    19    17    18   ar
    20    18    19   ar
    21    19    20    1
    22    20    21   ar
    23    21    22   ar
    24    22    23    1
    25    23    24    1
    26    23    25    1
    27    23    26    1
    28    26    27    1
    29    27    28    1
    30    28    29    1
    31    28    30    1
    32    22    31   ar
    33    28    31    1
    34    31    32   ar
    35    32    33   ar
    36    20    33   ar
    37    19    34   ar
    38    34    35   ar
    39    16    35   ar
    40     4    36    1
    41     4    37    1
    42     4    38    1
    43     5    39    1
    44     5    40    1
    45     6    41    1
    46     6    42    1
    47     7    43    1
    48     7    44    1
    49     7    45    1
    50     9    46    1
    51    10    47    1
    52    14    48    1
    53    15    49    1
    54    24    50    1
    55    24    51    1
    56    24    52    1
    57    25    53    1
    58    25    54    1
    59    25    55    1
    60    26    56    1
    61    26    57    1
    62    27    58    1
    63    27    59    1
    64    29    60    1
    65    29    61    1
    66    29    62    1
    67    30    63    1
    68    30    64    1
    69    30    65    1
    70    34    66    1
    71    35    67    1
    72    68     1    1
    73    68    33    1
    74    68    18    1
    75    68    11    1
@<TRIPOS>MOLECULE
*****
 68 75 0 0 0
SMALL
GASTEIGER

@<TRIPOS>ATOM
      1 O           0.7011   -0.5707   -1.2148 O.2     1  UNL1        0.0000
      2 C          -1.7947   -0.2884   -0.7075 C.2     1  UNL1        0.0000
      3 N          -0.5811   -1.4974    2.9097 N.am    1  UNL1        0.0000
      4 C          -2.5809   -1.8211    2.7604 C.3     1  UNL1        0.0000
      5 C          -0.3658   -1.8528    2.8408 C.3     1  UNL1        0.0000
      6 C           1.9980   -2.4911    2.6725 C.3     1  UNL1        0.0000
      7 C          -1.6248   -3.5688    0.0813 C.3     1  UNL1        0.0000
      8 C          -0.3639    2.6617    0.5639 C.ar    1  UNL1        0.0000
      9 C           1.6698    0.7128    0.8387 C.ar    1  UNL1        0.0000
     10 C          -0.0736    0.1345   -4.0663 C.ar    1  UNL1        0.0000
     11 N           0.2046    2.7451   -0.6262 N.ar    1  UNL1        0.0000
     12 C           0.9528    2.3280   -2.2111 C.ar    1  UNL1        0.0000
     13 C          -1.4218    1.0774   -3.2184 C.ar    1  UNL1        0.0000
     14 C          -0.0975   -2.4476    0.0829 C.ar    1  UNL1        0.0000
     15 C          -0.1963   -2.4704    0.0689 C.ar    1  UNL1        0.0000
     16 C           0.2640   -1.2388   -2.3757 C.ar    1  UNL1        0.0000
     17 C           1.7527   -1.1962   -2.1587 C.ar    1  UNL1        0.0000
     18 N           0.6801   -0.7907    1.1131 N.ar    1  UNL1        0.0000
     19 C           0.1178   -0.8027    1.1209 C.ar    1  UNL1        0.0000
     20 C          -1.2371   -0.6165    1.7857 C.ar    1  UNL1        0.0000
     21 N          -2.4603    1.1795   -0.1691 N.ar    1  UNL1        0.0000
     22 C          -0.8839    0.2465   -1.9001 C.ar    1  UNL1        0.0000
     23 C          -0.6869   -4.0540   -1.5850 C.3     1  UNL1        0.0000
     24 C          -0.9719    1.0463    0.5303 C.3     1  UNL1        0.0000
     25 C           0.7787    0.7703   -1.8613 C.3     1  UNL1        0.0000
     26 C          -1.1555    0.3871    0.5090 C.3     1  UNL1        0.0000
     27 C          -2.9163   -0.5910    0.3960 C.3     1  UNL1        0.0000
     28 C           2.1196   -0.0693    2.3565 C.3     1  UNL1        0.0000
     29 C           1.6628    1.1913    2.4796 C.3     1  UNL1        0.0000
     30 C          -2.0147   -1.8480    0.3640 C.3     1  UNL1        0.0000
     31 C          -0.8676    0.2741   -1.9039 C.ar    1  UNL1        0.0000
     32 N          -2.5831    2.7914    0.3402 N.ar    1  UNL1        0.0000
     33 N          -0.2485    1.3431    2.5465 N.ar    1  UNL1        0.0000
     34 C           0.1834   -0.0926    1.2192 C.ar    1  UNL1        0.0000
     35 C           0.5055    1.1725   -0.2711 C.ar    1  UNL1        0.0000
     36 H          -1.4245    0.4275    3.1296 H       1  UNL1        0.0000
     37 H          -0.7377   -4.1248    1.8322 H       1  UNL1        0.0000
     38 H          -0.4335    2.2087    3.5938 H       1  UNL1        0.0000
     39 H          -0.5269   -2.2760   -2.9411 H       1  UNL1        0.0000
     40 H          -3.1830   -0.5826    1.7622 H       1  UNL1        0.0000
     41 H           2.7859   -2.3575    2.5666 H       1  UNL1        0.0000
     42 H          -3.2414   -0.6356   -1.0670 H       1  UNL1        0.0000
     43 H          -0.7084    1.5518   -4.3477 H       1  UNL1        0.0000
     44 H           2.0345    1.6408   -1.2510 H       1  UNL1        0.0000
     45 H           1.5511   -1.5269    0.2903 H       1  UNL1        0.0000
     46 H          -1.6854   -0.9032    3.4727 H       1  UNL1        0.0000
     47 H           0.7685   -2.9211   -3.3912 H       1  UNL1        0.0000
     48 H           4.1438   -1.1042   -1.8622 H       1  UNL1        0.0000
     49 H          -0.7240    1.1670    4.5314 H       1  UNL1        0.0000
     50 H          -1.2364   -2.2874    1.7023 H       1  UNL1        0.0000
     51 H          -1.0954   -1.3472   -1.8429 H       1  UNL1        0.0000
     52 H          -0.9855    3.3341   -1.1807 H       1  UNL1        0.0000
     53 H           0.4916   -3.3507   -2.1963 H       1  UNL1        0.0000
     54 H          -1.1918    2.1776   -0.6078 H       1  UNL1        0.0000
     55 H           1.4630   -1.9792   -0.9330 H       1  UNL1        0.0000
     56 H           3.1726    0.5835    0.7730 H       1  UNL1        0.0000
     57 H           0.5598   -1.7126   -3.6897 H       1  UNL1        0.0000
     58 H          -1.6715   -1.8697   -3.4149 H       1  UNL1        0.0000
     59 H           0.7491   -0.8519    2.5452 H       1  UNL1        0.0000
     60 H          -2.7244    2.3011   -1.1067 H       1  UNL1        0.0000
     61 H           0.7963    1.1918   -3.5355 H       1  UNL1        0.0000
     62 H           1.8326    1.5019   -4.4285 H       1  UNL1        0.0000
     63 H           1.0008    3.8335   -0.5191 H       1  UNL1        0.0000
     64 H           2.6355   -0.5672   -0.3160 H       1  UNL1        0.0000
     65 H          -1.9033   -3.5630    1.9206 H       1  UNL1        0.0000
     66 H          -1.6099    1.2379    1.8764 H       1  UNL1        0.0000
     67 H           2.8308    1.7554    1.4564 H       1  UNL1        0.0000
     68 EU          1.5482    1.9503    0.3314 Eu      1  UNL1        0.0000
@<TRIPOS>BOND
     1     1     2    2
     2     2     3   am
     3     3     4    1
     4     3     5    1
     5     5     6    1
     6     6     7    1
     7     2     8    1
     8     8     9   ar
     9     9    10   ar
    10     8    11   ar
    11    11    12   ar
    12    12    13   ar
    13    10    13   ar
    14    13    14   ar
    15    14    15   ar
    16    15    16   ar
    17    16    17   ar
    18    12    17   ar
    19    17    18   ar
    20    18    19   ar
    21    19    20    1
    22    20    21   ar
    23    21    22   ar
    24    22    23    1
    25    23    24    1
    26    23    25    1
    27    23    26    1
    28    26    27    1
    29    27    28    1
    30    28    29    1
    31    28    30    1
    32    22    31   ar
    33    28    31    1
    34    31    32   ar
    35    32    33   ar
    36    20    33   ar
    37    19    34   ar
    38    34    35   ar
    39    16    35   ar
    40     4    36    1
    41     4    37    1
    42     4    38    1
    43     5    39    1
    44     5    40    1
    45     6    41    1
    46     6    42    1
    47     7    43    1
    48     7    44    1
    49     7    45    1
    50     9    46    1
    51    10    47    1
    52    14    48    1
    53    15    49    1
    54    24    50    1
    55    24    51    1
    56    24    52    1
    57    25    53    1
    58    25    54    1
    59    25    55    1
    60    26    56    1
    61    26    57    1
    62    27    58    1
    63    27    59    1
    64    29    60    1
    65    29    61    1
    66    29    62    1
    67    30    63    1
    68    30    64    1
    69    30    65    1
    70    34    66    1
    71    35    67    1
    72    68     1    1
    73    68    33    1
    74    68    18    1
    75    68    11    1
@<TRIPOS>MOLECULE
*****
 68 75 0 0 0
SMALL
GASTEIGER

@<TRIPOS>ATOM
      1 O           0.7011   -0.5707   -1.2148 O.2     1  UNL1        0.0000
      2 C          -1.7947   -0.2884   -0.7075 C.2     1  UNL1        0.0000
      3 N          -0.5811   -1.4974    2.9097 N.am    1  UNL1        0.0000
      4 C          -2.5809   -1.8211    2.7604 C.3     1  UNL1        0.0000
      5 C          -0.3658   -1.8528    2.8408 C.3     1  UNL1        0.0000
      6 C           1.9980   -2.4911    2.6725 C.3     1  UNL1        0.0000
      7 C          -1.6248   -3.5688    0.0813 C.3     1  UNL1        0.0000
      8 C          -0.3639    2.6617    0.5639 C.ar    1  UNL1        0.0000
      9 C           1.6698    0.7128    0.8387 C.ar    1  UNL1        0.0000
     10 C          -0.0736    0.1345   -4.0663 C.ar    1  UNL1        0.0000
     11 N           0.2046    2.7451   -0.6262 N.ar    1  UNL1        0.0000
     12 C           0.9528    2.3280   -2.2111 C.ar    1  UNL1        0.0000
     13 C          -1.4218    1.0774   -3.2184 C.ar    1  UNL1        0.0000
     14 C          -0.0975   -2.4476    0.0829 C.ar    1  UNL1        0.0000
     15 C          -0.1963   -2.4704    0.0689 C.ar    1  UNL1        0.0000
     16 C           0.2640   -1.2388   -2.3757 C.ar    1  UNL1        0.0000
     17 C           1.7527   -1.1962   -2.1587 C.ar    1  UNL1        0.0000
     18 N           0.6801   -0.7907    1.1131 N.ar    1  UNL1        0.0000
     19 C           0.1178   -0.8027    1.1209 C.ar    1  UNL1        0.0000
     20 C          -1.2371   -0.6165    1.7857 C.ar    1  UNL1        0.0000
     21 N          -2.4603    1.1795   -0.1691 N.ar    1  UNL1        0.0000
     22 C          -0.8839    0.2465   -1.9001 C.ar    1  UNL1        0.0000
     23 C          -0.6869   -4.0540   -1.5850 C.3     1  UNL1        0.0000
     24 C          -0.9719    1.0463    0.5303 C.3     1  UNL1        0.0000
     25 C           0.7787    0.7703   -1.8613 C.3     1  UNL1        0.0000
     26 C          -1.1555    0.3871    0.5090 C.3     1  UNL1        0.0000
     27 C          -2.9163   -0.5910    0.3960 C.3     1  UNL1        0.0000
     28 C           2.1196   -0.0693    2.3565 C.3     1  UNL1        0.0000
     29 C           1.6628    1.1913    2.4796 C.3     1  UNL1        0.0000
     30 C          -2.0147   -1.8480    0.3640 C.3     1  UNL1        0.0000
     31 C          -0.8676    0.2741   -1.9039 C.ar    1  UNL1        0.0000
     32 N          -2.5831    2.7914    0.3402 N.ar    1  UNL1        0.0000
     33 N          -0.2485    1.3431    2.5465 N.ar    1  UNL1        0.0000
     34 C           0.1834   -0.0926    1.2192 C.ar    1  UNL1        0.0000
     35 C           0.5055    1.1725   -0.2711 C.ar    1  UNL1        0.0000
     36 H          -1.4245    0.4275    3.1296 H       1  UNL1        0.0000
     37 H          -0.7377   -4.1248    1.8322 H       1  UNL1        0.0000
     38 H          -0.4335    2.2087    3.5938 H       1  UNL1        0.0000
     39 H          -0.5269   -2.2760   -2.9411 H       1  UNL1        0.0000
     40 H          -3.1830   -0.5826    1.7622 H       1  UNL1        0.0000
     41 H           2.7859   -2.3575    2.5666 H       1  UNL1        0.0000
     42 H          -3.2414   -0.6356   -1.0670 H       1  UNL1        0.0000
     43 H          -0.7084    1.5518   -4.3477 H       1  UNL1        0.0000
     44 H           2.0345    1.6408   -1.2510 H       1  UNL1        0.0000
     45 H           1.5511   -1.5269    0.2903 H       1  UNL1        0.0000
     46 H          -1.6854   -0.9032    3.4727 H       1  UNL1        0.0000
     47 H           0.7685   -2.9211   -3.3912 H       1  UNL1        0.0000
     48 H           4.1438   -1.1042   -1.8622 H       1  UNL1        0.0000
     49 H          -0.7240    1.1670    4.5314 H       1  UNL1        0.0000
     50 H          -1.2364   -2.2874    1.7023 H       1  UNL1        0.0000
     51 H          -1.0954   -1.3472   -1.8429 H       1  UNL1        0.0000
     52 H          -0.9855    3.3341   -1.1807 H       1  UNL1        0.0000
     53 H           0.4916   -3.3507   -2.1963 H       1  UNL1        0.0000
     54 H          -1.1918    2.1776   -0.6078 H       1  UNL1        0.0000
     55 H           1.4630   -1.9792   -0.9330 H       1  UNL1        0.0000
     56 H           3.1726    0.5835    0.7730 H       1  UNL1        0.0000
     57 H           0.5598   -1.7126   -3.6897 H       1  UNL1        0.0000
     58 H          -1.6715   -1.8697   -3.4149 H       1  UNL1        0.0000
     59 H           0.7491   -0.8519    2.5452 H       1  UNL1        0.0000
     60 H          -2.7244    2.3011   -1.1067 H       1  UNL1        0.0000
     61 H           0.7963    1.1918   -3.5355 H       1  UNL1        0.0000
     62 H           1.8326    1.5019   -4.4285 H       1  UNL1        0.0000
     63 H           1.0008    3.8335   -0.5191 H       1  UNL1        0.0000
     64 H           2.6355   -0.5672   -0.3160 H       1  UNL1        0.0000
     65 H          -1.9033   -3.5630    1.9206 H       1  UNL1        0.0000
     66 H          -1.6099    1.2379    1.8764 H       1  UNL1        0.0000
     67 H           2.8308    1.7554    1.4564 H       1  UNL1        0.0000
     68 EU          1.5482    1.9503    0.3314 Eu      1  UNL1        0.0000
@<TRIPOS>BOND
     1     1     2    2
     2     2     3   am
     3     3     4    1
     4     3     5    1
     5     5     6    1
     6     6     7    1
     7     2     8    1
     8     8     9   ar
     9     9    10   ar
    10     8    11   ar
    11    11    12   ar
    12    12    13   ar
    13    10    13   ar
    14    13    14   ar
    15    14    15   ar
    16    15    16   ar
    17    16    17   ar
    18    12    17   ar
    19    17    18   ar
    20    18    19   ar
    21    19    20    1
    22    20    21   ar
    23    21    22   ar
    24    22    23    1
    25    23    24    1
    26    23    25    1
    27    23    26    1
    28    26    27    1
    29    27    28    1
    30    28    29    1
    31    28    30    1
    32    22    31   ar
    33    28    31    1
    34    31    32   ar
    35    32    33   ar
    36    20    33   ar
    37    19    34   ar
    38    34    35   ar
    39    16    35   ar
    40     4    36    1
    41     4    37    1
    42     4    38    1
    43     5    39    1
    44     5    40    1
    45     6    41    1
    46     6    42    1
    47     7    43    1
    48     7    44    1
    49     7    45    1
    50     9    46    1
    51    10    47    1
    52    14    48    1
    53    15    49    1
    54    24    50    1
    55    24    51    1
    56    24    52    1
    57    25    53    1
    58    25    54    1
    59    25    55    1
    60    26    56    1
    61    26    57    1
    62    27    58    1
    63    27    59    1
    64    29    60    1
    65    29    61    1
    66    29    62    1
    67    30    63    1
    68    30    64    1
    69    30    65    1
    70    34    66    1
    71    35    67    1
    72    68     1    1
    73    68    33    1
    74    68    18    1
    75    68    11    1
@<TRIPOS>MOLECULE
*****
 68 75 0 0 0
SMALL
GASTEIGER

@<TRIPOS>ATOM
      1 O           0.7011   -0.5707   -1.2148 O.2     1  UNL1        0.0000
      2 C          -1.7947   -0.2884   -0.7075 C.2     1  UNL1        0.0000
      3 N          -0.5811   -1.4974    2.9097 N.am    1  UNL1        0.0000
      4 C          -2.5809   -1.8211    2.7604 C.3     1  UNL1        0.0000
      5 C          -0.3658   -1.8528    2.8408 C.3     1  UNL1        0.0000
      6 C           1.9980   -2.4911    2.6725 C.3     1  UNL1        0.0000
      7 C          -1.6248   -3.5688    0.0813 C.3     1  UNL1        0.0000
      8 C          -0.3639    2.6617    0.5639 C.ar    1  UNL1        0.0000
      9 C           1.6698    0.7128    0.8387 C.ar    1  UNL1        0.0000
     10 C          -0.0736    0.1345   -4.0663 C.ar    1  UNL1        0.0000
     11 N           0.2046    2.7451   -0.6262 N.ar    1  UNL1        0.0000
     12 C           0.9528    2.3280   -2.2111 C.ar    1  UNL1        0.0000
     13 C          -1.4218    1.0774   -3.2184 C.ar    1  UNL1        0.0000
     14 C          -0.0975   -2.4476    0.0829 C.ar    1  UNL1        0.0000
     15 C          -0.1963   -2.4704    0.0689 C.ar    1  UNL1        0.0000
     16 C           0.2640   -1.2388   -2.3757 C.ar    1  UNL1        0.0000
     17 C           1.7527   -1.1962   -2.1587 C.ar    1  UNL1        0.0000
     18 N           0.6801   -0.7907    1.1131 N.ar    1  UNL1        0.0000
     19 C           0.1178   -0.8027    1.1209 C.ar    1  UNL1        0.0000
     20 C          -1.2371   -0.6165    1.7857 C.ar    1  UNL1        0.0000
     21 N          -2.4603    1.1795   -0.1691 N.ar    1  UNL1        0.0000
     22 C          -0.8839    0.2465   -1.9001 C.ar    1  UNL1        0.0000
     23 C          -0.6869   -4.0540   -1.5850 C.3     1  UNL1        0.0000
     24 C          -0.9719    1.0463    0.5303 C.3     1  UNL1        0.0000
     25 C           0.7787    0.7703   -1.8613 C.3     1  UNL1        0.0000
     26 C          -1.1555    0.3871    0.5090 C.3     1  UNL1        0.0000
     27 C          -2.9163   -0.5910    0.3960 C.3     1  UNL1        0.0000
     28 C           2.1196   -0.0693    2.3565 C.3     1  UNL1        0.0000
     29 C           1.6628    1.1913    2.4796 C.3     1  UNL1        0.0000
     30 C          -2.0147   -1.8480    0.3640 C.3     1  UNL1        0.0000
     31 C          -0.8676    0.2741   -1.9039 C.ar    1  UNL1        0.0000
     32 N          -2.5831    2.7914    0.3402 N.ar    1  UNL1        0.0000
     33 N          -0.2485    1.3431    2.5465 N.ar    1  UNL1        0.0000
     34 C           0.1834   -0.0926    1.2192 C.ar    1  UNL1        0.0000
     35 C           0.5055    1.1725   -0.2711 C.ar    1  UNL1        0.0000
     36 H          -1.4245    0.4275    3.1296 H       1  UNL1        0.0000
     37 H          -0.7377   -4.1248    1.8322 H       1  UNL1        0.0000
     38 H          -0.4335    2.2087    3.5938 H       1  UNL1        0.0000
     39 H          -0.5269   -2.2760   -2.9411 H       1  UNL1        0.0000
     40 H          -3.1830   -0.5826    1.7622 H       1  UNL1        0.0000
     41 H           2.7859   -2.3575    2.5666 H       1  UNL1        0.0000
     42 H          -3.2414   -0.6356   -1.0670 H       1  UNL1        0.0000
     43 H          -0.7084    1.5518   -4.3477 H       1  UNL1        0.0000
     44 H           2.0345    1.6408   -1.2510 H       1  UNL1        0.0000
     45 H           1.5511   -1.5269    0.2903 H       1  UNL1        0.0000
     46 H          -1.6854   -0.9032    3.4727 H       1  UNL1        0.0000
     47 H           0.7685   -2.9211   -3.3912 H       1  UNL1        0.0000
     48 H           4.1438   -1.1042   -1.8622 H       1  UNL1        0.0000
     49 H          -0.7240    1.1670    4.5314 H       1  UNL1        0.0000
     50 H          -1.2364   -2.2874    1.7023 H       1  UNL1        0.0000
     51 H          -1.0954   -1.3472   -1.8429 H       1  UNL1        0.0000
     52 H          -0.9855    3.3341   -1.1807 H       1  UNL1        0.0000
     53 H           0.4916   -3.3507   -2.1963 H       1  UNL1        0.0000
     54 H          -1.1918    2.1776   -0.6078 H       1  UNL1        0.0000
     55 H           1.4630   -1.9792   -0.9330 H       1  UNL1        0.0000
     56 H           3.1726    0.5835    0.7730 H       1  UNL1        0.0000
     57 H           0.5598   -1.7126   -3.6897 H       1  UNL1        0.0000
     58 H          -1.6715   -1.8697   -3.4149 H       1  UNL1        0.0000
     59 H           0.7491   -0.8519    2.5452 H       1  UNL1        0.0000
     60 H          -2.7244    2.3011   -1.1067 H       1  UNL1        0.0000
     61 H           0.7963    1.1918   -3.5355 H       1  UNL1        0.0000
     62 H           1.8326    1.5019   -4.4285 H       1  UNL1        0.0000
     63 H           1.0008    3.8335   -0.5191 H       1  UNL1        0.0000
     64 H           2.6355   -0.5672   -0.3160 H       1  UNL1        0.0000
     65 H          -1.9033   -3.5630    1.9206 H       1  UNL1        0.0000
     66 H          -1.6099    1.2379    1.8764 H       1  UNL1        0.0000
     67 H           2.8308    1.7554    1.4564 H       1  UNL1        0.0000
     68 EU          1.5482    1.9503    0.3314 Eu      1  UNL1        0.0000
@<TRIPOS>BOND
     1     1     2    2
     2     2     3   am
     3     3     4    1
     4     3     5    1
     5     5     6    1
     6     6     7    1
     7     2     8    1
     8     8     9   ar
     9     9    10   ar
    10     8    11   ar
    11    11    12   ar
    12    12    13   ar
    13    10    13   ar
    14    13    14   ar
    15    14    15   ar
    16    15    16   ar
    17    16    17   ar
    18    12    17   ar
    19    17    18   ar
    20    18    19   ar
    21    19    20    1
    22    20    21   ar
    23    21    22   ar
    24    22    23    1
    25    23    24    1
    26    23    25    1
    27    23    26    1
    28    26    27    1
    29    27    28    1
    30    28    29    1
    31    28    30    1
    32    22    31   ar
    33    28    31    1
    34    31    32   ar
    35    32    33   ar
    36    20    33   ar
    37    19    34   ar
    38    34    35   ar
    39    16    35   ar
    40     4    36    1
    41     4    37    1
    42     4    38    1
    43     5    39    1
    44     5    40    1
    45     6    41    1
    46     6    42    1
    47     7    43    1
    48     7    44    1
    49     7    45    1
    50     9    46    1
    51    10    47    1
    52    14    48    1
    53    15    49    1
    54    24    50    1
    55    24    51    1
    56    24    52    1
    57    25    53    1
    58    25    54    1
    59    25    55    1
    60    26    56    1
    61    26    57    1
    62    27    58    1
    63    27    59    1
    64    29    60    1
    65    29    61    1
    66    29    62    1
    67    30    63    1
    68    30    64    1
    69    30    65    1
    70    34    66    1
    71    35    67    1
    72    68     1    1
    73    68    33    1
    74    68    18    1
    75    68    11    1
@<TRIPOS>MOLECULE
*****
 68 75 0 0 0
SMALL
GASTEIGER

@<TRIPOS>ATOM
      1 O           0.7011   -0.5707   -1.2148 O.2     1  UNL1        0.0000
      2 C          -1.7947   -0.2884   -0.7075 C.2     1  UNL1        0.0000
      3 N          -0.5811   -1.4974    2.9097 N.am    1  UNL1        0.0000
      4 C          -2.5809   -1.8211    2.7604 C.3     1  UNL1        0.0000
      5 C          -0.3658   -1.8528    2.8408 C.3     1  UNL1        0.0000
      6 C           1.9980   -2.4911    2.6725 C.3     1  UNL1        0.0000
      7 C          -1.6248   -3.5688    0.0813 C.3     1  UNL1        0.0000
      8 C          -0.3639    2.6617    0.5639 C.ar    1  UNL1        0.0000
      9 C           1.6698    0.7128    0.8387 C.ar    1  UNL1        0.0000
     10 C          -0.0736    0.1345   -4.0663 C.ar    1  UNL1        0.0000
     11 N           0.2046    2.7451   -0.6262 N.ar    1  UNL1        0.0000
     12 C           0.9528    2.3280   -2.2111 C.ar    1  UNL1        0.0000
     13 C          -1.4218    1.0774   -3.2184 C.ar    1  UNL1        0.0000
     14 C          -0.0975   -2.4476    0.0829 C.ar    1  UNL1        0.0000
     15 C          -0.1963   -2.4704    0.0689 C.ar    1  UNL1        0.0000
     16 C           0.2640   -1.2388   -2.3757 C.ar    1  UNL1        0.0000
     17 C           1.7527   -1.1962   -2.1587 C.ar    1  UNL1        0.0000
     18 N           0.6801   -0.7907    1.1131 N.ar    1  UNL1        0.0000
     19 C           0.1178   -0.8027    1.1209 C.ar    1  UNL1        0.0000
     20 C          -1.2371   -0.6165    1.7857 C.ar    1  UNL1        0.0000
     21 N          -2.4603    1.1795   -0.1691 N.ar    1  UNL1        0.0000
     22 C          -0.8839    0.2465   -1.9001 C.ar    1  UNL1        0.0000
     23 C          -0.6869   -4.0540   -1.5850 C.3     1  UNL1        0.0000
     24 C          -0.9719    1.0463    0.5303 C.3     1  UNL1        0.0000
     25 C           0.7787    0.7703   -1.8613 C.3     1  UNL1        0.0000
     26 C          -1.1555    0.3871    0.5090 C.3     1  UNL1        0.0000
     27 C          -2.9163   -0.5910    0.3960 C.3     1  UNL1        0.0000
     28 C           2.1196   -0.0693    2.3565 C.3     1  UNL1        0.0000
     29 C           1.6628    1.1913    2.4796 C.3     1  UNL1        0.0000
     30 C          -2.0147   -1.8480    0.3640 C.3     1  UNL1        0.0000
     31 C          -0.8676    0.2741   -1.9039 C.ar    1  UNL1        0.0000
     32 N          -2.5831    2.7914    0.3402 N.ar    1  UNL1        0.0000
     33 N          -0.2485    1.3431    2.5465 N.ar    1  UNL1        0.0000
     34 C           0.1834   -0.0926    1.2192 C.ar    1  UNL1        0.0000
     35 C           0.5055    1.1725   -0.2711 C.ar    1  UNL1        0.0000
     36 H          -1.4245    0.4275    3.1296 H       1  UNL1        0.0000
     37 H          -0.7377   -4.1248    1.8322 H       1  UNL1        0.0000
     38 H          -0.4335    2.2087    3.5938 H       1  UNL1        0.0000
     39 H          -0.5269   -2.2760   -2.9411 H       1  UNL1        0.0000
     40 H          -3.1830   -0.5826    1.7622 H       1  UNL1        0.0000
     41 H           2.7859   -2.3575    2.5666 H       1  UNL1        0.0000
     42 H          -3.2414   -0.6356   -1.0670 H       1  UNL1        0.0000
     43 H          -0.7084    1.5518   -4.3477 H       1  UNL1        0.0000
     44 H           2.0345    1.6408   -1.2510 H       1  UNL1        0.0000
     45 H           1.5511   -1.5269    0.2903 H       1  UNL1        0.0000
     46 H          -1.6854   -0.9032    3.4727 H       1  UNL1        0.0000
     47 H           0.7685   -2.9211   -3.3912 H       1  UNL1        0.0000
     48 H           4.1438   -1.1042   -1.8622 H       1  UNL1        0.0000
     49 H          -0.7240    1.1670    4.5314 H       1  UNL1        0.0000
     50 H          -1.2364   -2.2874    1.7023 H       1  UNL1        0.0000
     51 H          -1.0954   -1.3472   -1.8429 H       1  UNL1        0.0000
     52 H          -0.9855    3.3341   -1.1807 H       1  UNL1        0.0000
     53 H           0.4916   -3.3507   -2.1963 H       1  UNL1        0.0000
     54 H          -1.1918    2.1776   -0.6078 H       1  UNL1        0.0000
     55 H           1.4630   -1.9792   -0.9330 H       1  UNL1        0.0000
     56 H           3.1726    0.5835    0.7730 H       1  UNL1        0.0000
     57 H           0.5598   -1.7126   -3.6897 H       1  UNL1        0.0000
     58 H          -1.6715   -1.8697   -3.4149 H       1  UNL1        0.0000
     59 H           0.7491   -0.8519    2.5452 H       1  UNL1        0.0000
     60 H          -2.7244    2.3011   -1.1067 H       1  UNL1        0.0000
     61 H           0.7963    1.1918   -3.5355 H       1  UNL1        0.0000
     62 H           1.8326    1.5019   -4.4285 H       1  UNL1        0.0000
     63 H           1.0008    3.8335   -0.5191 H       1  UNL1        0.0000
     64 H           2.6355   -0.5672   -0.3160 H       1  UNL1        0.0000
     65 H          -1.9033   -3.5630    1.9206 H       1  UNL1        0.0000
     66 H          -1.6099    1.2379    1.8764 H       1  UNL1        0.0000
     67 H           2.8308    1.7554    1.4564 H       1  UNL1        0.0000
     68 EU          1.5482    1.9503    0.3314 Eu      1  UNL1        0.0000
@<TRIPOS>BOND
     1     1     2    2
     2     2     3   am
     3     3     4    1
     4     3     5    1
     5     5     6    1
     6     6     7    1
     7     2     8    1
     8     8     9   ar
     9     9    10   ar
    10     8    11   ar
    11    11    12   ar
    12    12    13   ar
    13    10    13   ar
    14    13    14   ar
    15    14    15   ar
    16    15    16   ar
    17    16    17   ar
    18    12    17   ar
    19    17    18   ar
    20    18    19   ar
    21    19    20    1
    22    20    21   ar
    23    21    22   ar
    24    22    23    1
    25    23    24    1
    26    23    25    1
    27    23    26    1
    28    26    27    1
    29    27    28    1
    30    28    29    1
    31    28    30    1
    32    22    31   ar
    33    28    31    1
    34    31    32   ar
    35    32    33   ar
    36    20    33   ar
    37    19    34   ar
    38    34    35   ar
    39    16    35   ar
    40     4    36    1
    41     4    37    1
    42     4    38    1
    43     5    39    1
    44     5    40    1
    45     6    41    1
    46     6    42    1
    47     7    43    1
    48     7    44    1
    49     7    45    1
    50     9    46    1
    51    10    47    1
    52    14    48    1
    53    15    49    1
    54    24    50    1
    55    24    51    1
    56    24    52    1
    57    25    53    1
    58    25    54    1
    59    25    55    1
    60    26    56    1
    61    26    57    1
    62    27    58    1
    63    27    59    1
    64    29    60    1
    65    29    61    1
    66    29    62    1
    67    30    63    1
    68    30    64    1
    69    30    65    1
    70    34    66    1
    71    35    67    1
    72    68     1    1
    73    68    33    1
    74    68    18    1
    75    68    11    1
@<TRIPOS>MOLECULE
*****
 68 75 0 0 0
SMALL
GASTEIGER

@<TRIPOS>ATOM
      1 O           0.7011   -0.5707   -1.2148 O.2     1  UNL1        0.0000
      2 C          -1.7947   -0.2884   -0.7075 C.2     1  UNL1        0.0000
      3 N          -0.5811   -1.4974    2.9097 N.am    1  UNL1        0.0000
      4 C          -2.5809   -1.8211    2.7604 C.3     1  UNL1        0.0000
      5 C          -0.3658   -1.8528    2.8408 C.3     1  UNL1        0.0000
      6 C           1.9980   -2.4911    2.6725 C.3     1  UNL1        0.0000
      7 C          -1.6248   -3.5688    0.0813 C.3     1  UNL1        0.0000
      8 C          -0.3639    2.6617    0.5639 C.ar    1  UNL1        0.0000
      9 C           1.6698    0.7128    0.8387 C.ar    1  UNL1        0.0000
     10 C          -0.0736    0.1345   -4.0663 C.ar    1  UNL1        0.0000
     11 N           0.2046    2.7451   -0.6262 N.ar    1  UNL1        0.0000
     12 C           0.9528    2.3280   -2.2111 C.ar    1  UNL1        0.0000
     13 C          -1.4218    1.0774   -3.2184 C.ar    1  UNL1        0.0000
     14 C          -0.0975   -2.4476    0.0829 C.ar    1  UNL1        0.0000
     15 C          -0.1963   -2.4704    0.0689 C.ar    1  UNL1        0.0000
     16 C           0.2640   -1.2388   -2.3757 C.ar    1  UNL1        0.0000
     17 C           1.7527   -1.1962   -2.1587 C.ar    1  UNL1        0.0000
     18 N           0.6801   -0.7907    1.1131 N.ar    1  UNL1        0.0000
     19 C           0.1178   -0.8027    1.1209 C.ar    1  UNL1        0.0000
     20 C          -1.2371   -0.6165    1.7857 C.ar    1  UNL1        0.0000
     21 N          -2.4603    1.1795   -0.1691 N.ar    1  UNL1        0.0000
     22 C          -0.8839    0.2465   -1.9001 C.ar    1  UNL1        0.0000
     23 C          -0.6869   -4.0540   -1.5850 C.3     1  UNL1        0.0000
     24 C          -0.9719    1.0463    0.5303 C.3     1  UNL1        0.0000
     25 C           0.7787    0.7703   -1.8613 C.3     1  UNL1        0.0000
     26 C          -1.1555    0.3871    0.5090 C.3     1  UNL1        0.0000
     27 C          -2.9163   -0.5910    0.3960 C.3     1  UNL1        0.0000
     28 C           2.1196   -0.0693    2.3565 C.3     1  UNL1        0.0000
     29 C           1.6628    1.1913    2.4796 C.3     1  UNL1        0.0000
     30 C          -2.0147   -1.8480    0.3640 C.3     1  UNL1        0.0000
     31 C          -0.8676    0.2741   -1.9039 C.ar    1  UNL1        0.0000
     32 N          -2.5831    2.7914    0.3402 N.ar    1  UNL1        0.0000
     33 N          -0.2485    1.3431    2.5465 N.ar    1  UNL1        0.0000
     34 C           0.1834   -0.0926    1.2192 C.ar    1  UNL1        0.0000
     35 C           0.5055    1.1725   -0.2711 C.ar    1  UNL1        0.0000
     36 H          -1.4245    0.4275    3.1296 H       1  UNL1        0.0000
     37 H          -0.7377   -4.1248    1.8322 H       1  UNL1        0.0000
     38 H          -0.4335    2.2087    3.5938 H       1  UNL1        0.0000
     39 H          -0.5269   -2.2760   -2.9411 H       1  UNL1        0.0000
     40 H          -3.1830   -0.5826    1.7622 H       1  UNL1        0.0000
     41 H           2.7859   -2.3575    2.5666 H       1  UNL1        0.0000
     42 H          -3.2414   -0.6356   -1.0670 H       1  UNL1        0.0000
     43 H          -0.7084    1.5518   -4.3477 H       1  UNL1        0.0000
     44 H           2.0345    1.6408   -1.2510 H       1  UNL1        0.0000
     45 H           1.5511   -1.5269    0.2903 H       1  UNL1        0.0000
     46 H          -1.6854   -0.9032    3.4727 H       1  UNL1        0.0000
     47 H           0.7685   -2.9211   -3.3912 H       1  UNL1        0.0000
     48 H           4.1438   -1.1042   -1.8622 H       1  UNL1        0.0000
     49 H          -0.7240    1.1670    4.5314 H       1  UNL1        0.0000
     50 H          -1.2364   -2.2874    1.7023 H       1  UNL1        0.0000
     51 H          -1.0954   -1.3472   -1.8429 H       1  UNL1        0.0000
     52 H          -0.9855    3.3341   -1.1807 H       1  UNL1        0.0000
     53 H           0.4916   -3.3507   -2.1963 H       1  UNL1        0.0000
     54 H          -1.1918    2.1776   -0.6078 H       1  UNL1        0.0000
     55 H           1.4630   -1.9792   -0.9330 H       1  UNL1        0.0000
     56 H           3.1726    0.5835    0.7730 H       1  UNL1        0.0000
     57 H           0.5598   -1.7126   -3.6897 H       1  UNL1        0.0000
     58 H          -1.6715   -1.8697   -3.4149 H       1  UNL1        0.0000
     59 H           0.7491   -0.8519    2.5452 H       1  UNL1        0.0000
     60 H          -2.7244    2.3011   -1.1067 H       1  UNL1        0.0000
     61 H           0.7963    1.1918   -3.5355 H       1  UNL1        0.0000
     62 H           1.8326    1.5019   -4.4285 H       1  UNL1        0.0000
     63 H           1.0008    3.8335   -0.5191 H       1  UNL1        0.0000
     64 H           2.6355   -0.5672   -0.3160 H       1  UNL1        0.0000
     65 H          -1.9033   -3.5630    1.9206 H       1  UNL1        0.0000
     66 H          -1.6099    1.2379    1.8764 H       1  UNL1        0.0000
     67 H           2.8308    1.7554    1.4564 H       1  UNL1        0.0000
     68 EU          1.5482    1.9503    0.3314 Eu      1  UNL1        0.0000
@<TRIPOS>BOND
     1     1     2    2
     2     2     3   am
     3     3     4    1
     4     3     5    1
     5     5     6    1
     6     6     7    1
     7     2     8    1
     8     8     9   ar
     9     9    10   ar
    10     8    11   ar
    11    11    12   ar
    12    12    13   ar
    13    10    13   ar
    14    13    14   ar
    15    14    15   ar
    16    15    16   ar
    17    16    17   ar
    18    12    17   ar
    19    17    18   ar
    20    18    19   ar
    21    19    20    1
    22    20    21   ar
    23    21    22   ar
    24    22    23    1
    25    23    24    1
    26    23    25    1
    27    23    26    1
    28    26    27    1
    29    27    28    1
    30    28    29    1
    31    28    30    1
    32    22    31   ar
    33    28    31    1
    34    31    32   ar
    35    32    33   ar
    36    20    33   ar
    37    19    34   ar
    38    34    35   ar
    39    16    35   ar
    40     4    36    1
    41     4    37    1
    42     4    38    1
    43     5    39    1
    44     5    40    1
    45     6    41    1
    46     6    42    1
    47     7    43    1
    48     7    44    1
    49     7    45    1
    50     9    46    1
    51    10    47    1
    52    14    48    1
    53    15    49    1
    54    24    50    1
    55    24    51    1
    56    24    52    1
    57    25    53    1
    58    25    54    1
    59    25    55    1
    60    26    56    1
    61    26    57    1
    62    27    58    1
    63    27    59    1
    64    29    60    1
    65    29    61    1
    66    29    62    1
    67    30    63    1
    68    30    64    1
    69    30    65    1
    70    34    66    1
    71    35    67    1
    72    68     1    1
    73    68    33    1
    74    68    18    1
    75    68    11    1
@<TRIPOS>MOLECULE
*****
 68 75 0 0 0
SMALL
GASTEIGER

@<TRIPOS>ATOM
      1 O           0.7011   -0.5707   -1.2148 O.2     1  UNL1        0.0000
      2 C          -1.7947   -0.2884   -0.7075 C.2     1  UNL1        0.0000
      3 N          -0.5811   -1.4974    2.9097 N.am    1  UNL1        0.0000
      4 C          -2.5809   -1.8211    2.7604 C.3     1  UNL1        0.0000
      5 C          -0.3658   -1.8528    2.8408 C.3     1  UNL1        0.0000
      6 C           1.9980   -2.4911    2.6725 C.3     1  UNL1        0.0000
      7 C          -1.6248   -3.5688    0.0813 C.3     1  UNL1        0.0000
      8 C          -0.3639    2.6617    0.5639 C.ar    1  UNL1        0.0000
      9 C           1.6698    0.7128    0.8387 C.ar    1  UNL1        0.0000
     10 C          -0.0736    0.1345   -4.0663 C.ar    1  UNL1        0.0000
     11 N           0.2046    2.7451   -0.6262 N.ar    1  UNL1        0.0000
     12 C           0.9528    2.3280   -2.2111 C.ar    1  UNL1        0.0000
     13 C          -1.4218    1.0774   -3.2184 C.ar    1  UNL1        0.0000
     14 C          -0.0975   -2.4476    0.0829 C.ar    1  UNL1        0.0000
     15 C          -0.1963   -2.4704    0.0689 C.ar    1  UNL1        0.0000
     16 C           0.2640   -1.2388   -2.3757 C.ar    1  UNL1        0.0000
     17 C           1.7527   -1.1962   -2.1587 C.ar    1  UNL1        0.0000
     18 N           0.6801   -0.7907    1.1131 N.ar    1  UNL1        0.0000
     19 C           0.1178   -0.8027    1.1209 C.ar    1  UNL1        0.0000
     20 C          -1.2371   -0.6165    1.7857 C.ar    1  UNL1        0.0000
     21 N          -2.4603    1.1795   -0.1691 N.ar    1  UNL1        0.0000
     22 C          -0.8839    0.2465   -1.9001 C.ar    1  UNL1        0.0000
     23 C          -0.6869   -4.0540   -1.5850 C.3     1  UNL1        0.0000
     24 C          -0.9719    1.0463    0.5303 C.3     1  UNL1        0.0000
     25 C           0.7787    0.7703   -1.8613 C.3     1  UNL1        0.0000
     26 C          -1.1555    0.3871    0.5090 C.3     1  UNL1        0.0000
     27 C          -2.9163   -0.5910    0.3960 C.3     1  UNL1        0.0000
     28 C           2.1196   -0.0693    2.3565 C.3     1  UNL1        0.0000
     29 C           1.6628    1.1913    2.4796 C.3     1  UNL1        0.0000
     30 C          -2.0147   -1.8480    0.3640 C.3     1  UNL1        0.0000
     31 C          -0.8676    0.2741   -1.9039 C.ar    1  UNL1        0.0000
     32 N          -2.5831    2.7914    0.3402 N.ar    1  UNL1        0.0000
     33 N          -0.2485    1.3431    2.5465 N.ar    1  UNL1        0.0000
     34 C           0.1834   -0.0926    1.2192 C.ar    1  UNL1        0.0000
     35 C           0.5055    1.1725   -0.2711 C.ar    1  UNL1        0.0000
     36 H          -1.4245    0.4275    3.1296 H       1  UNL1        0.0000
     37 H          -0.7377   -4.1248    1.8322 H       1  UNL1        0.0000
     38 H          -0.4335    2.2087    3.5938 H       1  UNL1        0.0000
     39 H          -0.5269   -2.2760   -2.9411 H       1  UNL1        0.0000
     40 H          -3.1830   -0.5826    1.7622 H       1  UNL1        0.0000
     41 H           2.7859   -2.3575    2.5666 H       1  UNL1        0.0000
     42 H          -3.2414   -0.6356   -1.0670 H       1  UNL1        0.0000
     43 H          -0.7084    1.5518   -4.3477 H       1  UNL1        0.0000
     44 H           2.0345    1.6408   -1.2510 H       1  UNL1        0.0000
     45 H           1.5511   -1.5269    0.2903 H       1  UNL1        0.0000
     46 H          -1.6854   -0.9032    3.4727 H       1  UNL1        0.0000
     47 H           0.7685   -2.9211   -3.3912 H       1  UNL1        0.0000
     48 H           4.1438   -1.1042   -1.8622 H       1  UNL1        0.0000
     49 H          -0.7240    1.1670    4.5314 H       1  UNL1        0.0000
     50 H          -1.2364   -2.2874    1.7023 H       1  UNL1        0.0000
     51 H          -1.0954   -1.3472   -1.8429 H       1  UNL1        0.0000
     52 H          -0.9855    3.3341   -1.1807 H       1  UNL1        0.0000
     53 H           0.4916   -3.3507   -2.1963 H       1  UNL1        0.0000
     54 H          -1.1918    2.1776   -0.6078 H       1  UNL1        0.0000
     55 H           1.4630   -1.9792   -0.9330 H       1  UNL1        0.0000
     56 H           3.1726    0.5835    0.7730 H       1  UNL1        0.0000
     57 H           0.5598   -1.7126   -3.6897 H       1  UNL1        0.0000
     58 H          -1.6715   -1.8697   -3.4149 H       1  UNL1        0.0000
     59 H           0.7491   -0.8519    2.5452 H       1  UNL1        0.0000
     60 H          -2.7244    2.3011   -1.1067 H       1  UNL1        0.0000
     61 H           0.7963    1.1918   -3.5355 H       1  UNL1        0.0000
     62 H           1.8326    1.5019   -4.4285 H       1  UNL1        0.0000
     63 H           1.0008    3.8335   -0.5191 H       1  UNL1        0.0000
     64 H           2.6355   -0.5672   -0.3160 H       1  UNL1        0.0000
     65 H          -1.9033   -3.5630    1.9206 H       1  UNL1        0.0000
     66 H          -1.6099    1.2379    1.8764 H       1  UNL1        0.0000
     67 H           2.8308    1.7554    1.4564 H       1  UNL1        0.0000
     68 EU          1.5482    1.9503    0.3314 Eu      1  UNL1        0.0000
@<TRIPOS>BOND
     1     1     2    2
     2     2     3   am
     3     3     4    1
     4     3     5    1
     5     5     6    1
     6     6     7    1
     7     2     8    1
     8     8     9   ar
     9     9    10   ar
    10     8    11   ar
    11    11    12   ar
    12    12    13   ar
    13    10    13   ar
    14    13    14   ar
    15    14    15   ar
    16    15    16   ar
    17    16    17   ar
    18    12    17   ar
    19    17    18   ar
    20    18    19   ar
    21    19    20    1
    22    20    21   ar
    23    21    22   ar
    24    22    23    1
    25    23    24    1
    26    23    25    1
    27    23    26    1
    28    26    27    1
    29    27    28    1
    30    28    29    1
    31    28    30    1
    32    22    31   ar
    33    28    31    1
    34    31    32   ar
    35    32    33   ar
    36    20    33   ar
    37    19    34   ar
    38    34    35   ar
    39    16    35   ar
    40     4    36    1
    41     4    37    1
    42     4    38    1
    43     5    39    1
    44     5    40    1
    45     6    41    1
    46     6    42    1
    47     7    43    1
    48     7    44    1
    49     7    45    1
    50     9    46    1
    51    10    47    1
    52    14    48    1
    53    15    49    1
    54    24    50    1
    55    24    51    1
    56    24    52    1
    57    25    53    1
    58    25    54    1
    59    25    55    1
    60    26    56    1
    61    26    57    1
    62    27    58    1
    63    27    59    1
    64    29    60    1
    65    29    61    1
    66    29    62    1
    67    30    63    1
    68    30    64    1
    69    30    65    1
    70    34    66    1
    71    35    67    1
    72    68     1    1
    73    68    33    1
    74    68    18    1
    75    68    11    1
@<TRIPOS>MOLECULE
*****
 68 75 0 0 0
SMALL
GASTEIGER

@<TRIPOS>ATOM
      1 O           0.7011   -0.5707   -1.2148 O.2     1  UNL1        0.0000
      2 C          -1.7947   -0.2884   -0.7075 C.2     1  UNL1        0.0000
      3 N          -0.5811   -1.4974    2.9097 N.am    1  UNL1        0.0000
      4 C          -2.5809   -1.8211    2.7604 C.3     1  UNL1        0.0000
      5 C          -0.3658   -1.8528    2.8408 C.3     1  UNL1        0.0000
      6 C           1.9980   -2.4911    2.6725 C.3     1  UNL1        0.0000
      7 C          -1.6248   -3.5688    0.0813 C.3     1  UNL1        0.0000
      8 C          -0.3639    2.6617    0.5639 C.ar    1  UNL1        0.0000
      9 C           1.6698    0.7128    0.8387 C.ar    1  UNL1        0.0000
     10 C          -0.0736    0.1345   -4.0663 C.ar    1  UNL1        0.0000
     11 N           0.2046    2.7451   -0.6262 N.ar    1  UNL1        0.0000
     12 C           0.9528    2.3280   -2.2111 C.ar    1  UNL1        0.0000
     13 C          -1.4218    1.0774   -3.2184 C.ar    1  UNL1        0.0000
     14 C          -0.0975   -2.4476    0.0829 C.ar    1  UNL1        0.0000
     15 C          -0.1963   -2.4704    0.0689 C.ar    1  UNL1        0.0000
     16 C           0.2640   -1.2388   -2.3757 C.ar    1  UNL1        0.0000
     17 C           1.7527   -1.1962   -2.1587 C.ar    1  UNL1        0.0000
     18 N           0.6801   -0.7907    1.1131 N.ar    1  UNL1        0.0000
     19 C           0.1178   -0.8027    1.1209 C.ar    1  UNL1        0.0000
     20 C          -1.2371   -0.6165    1.7857 C.ar    1  UNL1        0.0000
     21 N          -2.4603    1.1795   -0.1691 N.ar    1  UNL1        0.0000
     22 C          -0.8839    0.2465   -1.9001 C.ar    1  UNL1        0.0000
     23 C          -0.6869   -4.0540   -1.5850 C.3     1  UNL1        0.0000
     24 C          -0.9719    1.0463    0.5303 C.3     1  UNL1        0.0000
     25 C           0.7787    0.7703   -1.8613 C.3     1  UNL1        0.0000
     26 C          -1.1555    0.3871    0.5090 C.3     1  UNL1        0.0000
     27 C          -2.9163   -0.5910    0.3960 C.3     1  UNL1        0.0000
     28 C           2.1196   -0.0693    2.3565 C.3     1  UNL1        0.0000
     29 C           1.6628    1.1913    2.4796 C.3     1  UNL1        0.0000
     30 C          -2.0147   -1.8480    0.3640 C.3     1  UNL1        0.0000
     31 C          -0.8676    0.2741   -1.9039 C.ar    1  UNL1        0.0000
     32 N          -2.5831    2.7914    0.3402 N.ar    1  UNL1        0.0000
     33 N          -0.2485    1.3431    2.5465 N.ar    1  UNL1        0.0000
     34 C           0.1834   -0.0926    1.2192 C.ar    1  UNL1        0.0000
     35 C           0.5055    1.1725   -0.2711 C.ar    1  UNL1        0.0000
     36 H          -1.4245    0.4275    3.1296 H       1  UNL1        0.0000
     37 H          -0.7377   -4.1248    1.8322 H       1  UNL1        0.0000
     38 H          -0.4335    2.2087    3.5938 H       1  UNL1        0.0000
     39 H          -0.5269   -2.2760   -2.9411 H       1  UNL1        0.0000
     40 H          -3.1830   -0.5826    1.7622 H       1  UNL1        0.0000
     41 H           2.7859   -2.3575    2.5666 H       1  UNL1        0.0000
     42 H          -3.2414   -0.6356   -1.0670 H       1  UNL1        0.0000
     43 H          -0.7084    1.5518   -4.3477 H       1  UNL1        0.0000
     44 H           2.0345    1.6408   -1.2510 H       1  UNL1        0.0000
     45 H           1.5511   -1.5269    0.2903 H       1  UNL1        0.0000
     46 H          -1.6854   -0.9032    3.4727 H       1  UNL1        0.0000
     47 H           0.7685   -2.9211   -3.3912 H       1  UNL1        0.0000
     48 H           4.1438   -1.1042   -1.8622 H       1  UNL1        0.0000
     49 H          -0.7240    1.1670    4.5314 H       1  UNL1        0.0000
     50 H          -1.2364   -2.2874    1.7023 H       1  UNL1        0.0000
     51 H          -1.0954   -1.3472   -1.8429 H       1  UNL1        0.0000
     52 H          -0.9855    3.3341   -1.1807 H       1  UNL1        0.0000
     53 H           0.4916   -3.3507   -2.1963 H       1  UNL1        0.0000
     54 H          -1.1918    2.1776   -0.6078 H       1  UNL1        0.0000
     55 H           1.4630   -1.9792   -0.9330 H       1  UNL1        0.0000
     56 H           3.1726    0.5835    0.7730 H       1  UNL1        0.0000
     57 H           0.5598   -1.7126   -3.6897 H       1  UNL1        0.0000
     58 H          -1.6715   -1.8697   -3.4149 H       1  UNL1        0.0000
     59 H           0.7491   -0.8519    2.5452 H       1  UNL1        0.0000
     60 H          -2.7244    2.3011   -1.1067 H       1  UNL1        0.0000
     61 H           0.7963    1.1918   -3.5355 H       1  UNL1        0.0000
     62 H           1.8326    1.5019   -4.4285 H       1  UNL1        0.0000
     63 H           1.0008    3.8335   -0.5191 H       1  UNL1        0.0000
     64 H           2.6355   -0.5672   -0.3160 H       1  UNL1        0.0000
     65 H          -1.9033   -3.5630    1.9206 H       1  UNL1        0.0000
     66 H          -1.6099    1.2379    1.8764 H       1  UNL1        0.0000
     67 H           2.8308    1.7554    1.4564 H       1  UNL1        0.0000
     68 EU          1.5482    1.9503    0.3314 Eu      1  UNL1        0.0000
@<TRIPOS>BOND
     1     1     2    2
     2     2     3   am
     3     3     4    1
     4     3     5    1
     5     5     6    1
     6     6     7    1
     7     2     8    1
     8     8     9   ar
     9     9    10   ar
    10     8    11   ar
    11    11    12   ar
    12    12    13   ar
    13    10    13   ar
    14    13    14   ar
    15    14    15   ar
    16    15    16   ar
    17    16    17   ar
    18    12    17   ar
    19    17    18   ar
    20    18    19   ar
    21    19    20    1
    22    20    21   ar
    23    21    22   ar
    24    22    23    1
    25    23    24    1
    26    23    25    1
    27    23    26    1
    28    26    27    1
    29    27    28    1
    30    28    29    1
    31    28    30    1
    32    22    31   ar
    33    28    31    1
    34    31    32   ar
    35    32    33   ar
    36    20    33   ar
    37    19    34   ar
    38    34    35   ar
    39    16    35   ar
    40     4    36    1
    41     4    37    1
    42     4    38    1
    43     5    39    1
    44     5    40    1
    45     6    41    1
    46     6    42    1
    47     7    43    1
    48     7    44    1
    49     7    45    1
    50     9    46    1
    51    10    47    1
    52    14    48    1
    53    15    49    1
    54    24    50    1
    55    24    51    1
    56    24    52    1
    57    25    53    1
    58    25    54    1
    59    25    55    1
    60    26    56    1
    61    26    57    1
    62    27    58    1
    63    27    59    1
    64    29    60    1
    65    29    61    1
    66    29    62    1
    67    30    63    1
    68    30    64    1
    69    30    65    1
    70    34    66    1
    71    35    67    1
    72    68     1    1
    73    68    33    1
    74    68    18    1
    75    68    11    1
@<TRIPOS>MOLECULE
*****
 68 75 0 0 0
SMALL
GASTEIGER

@<TRIPOS>ATOM
      1 O           0.7011   -0.5707   -1.2148 O.2     1  UNL1        0.0000
      2 C          -1.7947   -0.2884   -0.7075 C.2     1  UNL1        0.0000
      3 N          -0.5811   -1.4974    2.9097 N.am    1  UNL1        0.0000
      4 C          -2.5809   -1.8211    2.7604 C.3     1  UNL1        0.0000
      5 C          -0.3658   -1.8528    2.8408 C.3     1  UNL1        0.0000
      6 C           1.9980   -2.4911    2.6725 C.3     1  UNL1        0.0000
      7 C          -1.6248   -3.5688    0.0813 C.3     1  UNL1        0.0000
      8 C          -0.3639    2.6617    0.5639 C.ar    1  UNL1        0.0000
      9 C           1.6698    0.7128    0.8387 C.ar    1  UNL1        0.0000
     10 C          -0.0736    0.1345   -4.0663 C.ar    1  UNL1        0.0000
     11 N           0.2046    2.7451   -0.6262 N.ar    1  UNL1        0.0000
     12 C           0.9528    2.3280   -2.2111 C.ar    1  UNL1        0.0000
     13 C          -1.4218    1.0774   -3.2184 C.ar    1  UNL1        0.0000
     14 C          -0.0975   -2.4476    0.0829 C.ar    1  UNL1        0.0000
     15 C          -0.1963   -2.4704    0.0689 C.ar    1  UNL1        0.0000
     16 C           0.2640   -1.2388   -2.3757 C.ar    1  UNL1        0.0000
     17 C           1.7527   -1.1962   -2.1587 C.ar    1  UNL1        0.0000
     18 N           0.6801   -0.7907    1.1131 N.ar    1  UNL1        0.0000
     19 C           0.1178   -0.8027    1.1209 C.ar    1  UNL1        0.0000
     20 C          -1.2371   -0.6165    1.7857 C.ar    1  UNL1        0.0000
     21 N          -2.4603    1.1795   -0.1691 N.ar    1  UNL1        0.0000
     22 C          -0.8839    0.2465   -1.9001 C.ar    1  UNL1        0.0000
     23 C          -0.6869   -4.0540   -1.5850 C.3     1  UNL1        0.0000
     24 C          -0.9719    1.0463    0.5303 C.3     1  UNL1        0.0000
     25 C           0.7787    0.7703   -1.8613 C.3     1  UNL1        0.0000
     26 C          -1.1555    0.3871    0.5090 C.3     1  UNL1        0.0000
     27 C          -2.9163   -0.5910    0.3960 C.3     1  UNL1        0.0000
     28 C           2.1196   -0.0693    2.3565 C.3     1  UNL1        0.0000
     29 C           1.6628    1.1913    2.4796 C.3     1  UNL1        0.0000
     30 C          -2.0147   -1.8480    0.3640 C.3     1  UNL1        0.0000
     31 C          -0.8676    0.2741   -1.9039 C.ar    1  UNL1        0.0000
     32 N          -2.5831    2.7914    0.3402 N.ar    1  UNL1        0.0000
     33 N          -0.2485    1.3431    2.5465 N.ar    1  UNL1        0.0000
     34 C           0.1834   -0.0926    1.2192 C.ar    1  UNL1        0.0000
     35 C           0.5055    1.1725   -0.2711 C.ar    1  UNL1        0.0000
     36 H          -1.4245    0.4275    3.1296 H       1  UNL1        0.0000
     37 H          -0.7377   -4.1248    1.8322 H       1  UNL1        0.0000
     38 H          -0.4335    2.2087    3.5938 H       1  UNL1        0.0000
     39 H          -0.5269   -2.2760   -2.9411 H       1  UNL1        0.0000
     40 H          -3.1830   -0.5826    1.7622 H       1  UNL1        0.0000
     41 H           2.7859   -2.3575    2.5666 H       1  UNL1        0.0000
     42 H          -3.2414   -0.6356   -1.0670 H       1  UNL1        0.0000
     43 H          -0.7084    1.5518   -4.3477 H       1  UNL1        0.0000
     44 H           2.0345    1.6408   -1.2510 H       1  UNL1        0.0000
     45 H           1.5511   -1.5269    0.2903 H       1  UNL1        0.0000
     46 H          -1.6854   -0.9032    3.4727 H       1  UNL1        0.0000
     47 H           0.7685   -2.9211   -3.3912 H       1  UNL1        0.0000
     48 H           4.1438   -1.1042   -1.8622 H       1  UNL1        0.0000
     49 H          -0.7240    1.1670    4.5314 H       1  UNL1        0.0000
     50 H          -1.2364   -2.2874    1.7023 H       1  UNL1        0.0000
     51 H          -1.0954   -1.3472   -1.8429 H       1  UNL1        0.0000
     52 H          -0.9855    3.3341   -1.1807 H       1  UNL1        0.0000
     53 H           0.4916   -3.3507   -2.1963 H       1  UNL1        0.0000
     54 H          -1.1918    2.1776   -0.6078 H       1  UNL1        0.0000
     55 H           1.4630   -1.9792   -0.9330 H       1  UNL1        0.0000
     56 H           3.1726    0.5835    0.7730 H       1  UNL1        0.0000
     57 H           0.5598   -1.7126   -3.6897 H       1  UNL1        0.0000
     58 H          -1.6715   -1.8697   -3.4149 H       1  UNL1        0.0000
     59 H           0.7491   -0.8519    2.5452 H       1  UNL1        0.0000
     60 H          -2.7244    2.3011   -1.1067 H       1  UNL1        0.0000
     61 H           0.7963    1.1918   -3.5355 H       1  UNL1        0.0000
     62 H           1.8326    1.5019   -4.4285 H       1  UNL1        0.0000
     63 H           1.0008    3.8335   -0.5191 H       1  UNL1        0.0000
     64 H           2.6355   -0.5672   -0.3160 H       1  UNL1        0.0000
     65 H          -1.9033   -3.5630    1.9206 H       1  UNL1        0.0000
     66 H          -1.6099    1.2379    1.8764 H       1  UNL1        0.0000
     67 H           2.8308    1.7554    1.4564 H       1  UNL1        0.0000
     68 EU          1.5482    1.9503    0.3314 Eu      1  UNL1        0.0000
@<TRIPOS>BOND
     1     1     2    2
     2     2     3   am
     3     3     4    1
     4     3     5    1
     5     5     6    1
     6     6     7    1
     7     2     8    1
     8     8     9   ar
     9     9    10   ar
    10     8    11   ar
    11    11    12   ar
    12    12    13   ar
    13    10    13   ar
    14    13    14   ar
    15    14    15   ar
    16    15    16   ar
    17    16    17   ar
    18    12    17   ar
    19    17    18   ar
    20    18    19   ar
    21    19    20    1
    22    20    21   ar
    23    21    22   ar
    24    22    23    1
    25    23    24    1
    26    23    25    1
    27    23    26    1
    28    26    27    1
    29    27    28    1
    30    28    29    1
    31    28    30    1
    32    22    31   ar
    33    28    31    1
    34    31    32   ar
    35    32    33   ar
    36    20    33   ar
    37    19    34   ar
    38    34    35   ar
    39    16    35   ar
    40     4    36    1
    41     4    37    1
    42     4    38    1
    43     5    39    1
    44     5    40    1
    45     6    41    1
    46     6    42    1
    47     7    43    1
    48     7    44    1
    49     7    45    1
    50     9    46    1
    51    10    47    1
    52    14    48    1
    53    15    49    1
    54    24    50    1
    55    24    51    1
    56    24    52    1
    57    25    53    1
    58    25    54    1
    59    25    55    1
    60    26    56    1
    61    26    57    1
    62    27    58    1
    63    27    59    1
    64    29    60    1
    65    29    61    1
    66    29    62    1
    67    30    63    1
    68    30    64    1
    69    30    65    1
    70    34    66    1
    71    35    67    1
    72    68     1    1
    73    68    33    1
    74    68    18    1
    75    68    11    1
@<TRIPOS>MOLECULE
*****
 68 75 0 0 0
SMALL
GASTEIGER

@<TRIPOS>ATOM
      1 O           0.7011   -0.5707   -1.2148 O.2     1  UNL1        0.0000
      2 C          -1.7947   -0.2884   -0.7075 C.2     1  UNL1        0.0000
      3 N          -0.5811   -1.4974    2.9097 N.am    1  UNL1        0.0000
      4 C          -2.5809   -1.8211    2.7604 C.3     1  UNL1        0.0000
      5 C          -0.3658   -1.8528    2.8408 C.3     1  UNL1        0.0000
      6 C           1.9980   -2.4911    2.6725 C.3     1  UNL1        0.0000
      7 C          -1.6248   -3.5688    0.0813 C.3     1  UNL1        0.0000
      8 C          -0.3639    2.6617    0.5639 C.ar    1  UNL1        0.0000
      9 C           1.6698    0.7128    0.8387 C.ar    1  UNL1        0.0000
     10 C          -0.0736    0.1345   -4.0663 C.ar    1  UNL1        0.0000
     11 N           0.2046    2.7451   -0.6262 N.ar    1  UNL1        0.0000
     12 C           0.9528    2.3280   -2.2111 C.ar    1  UNL1        0.0000
     13 C          -1.4218    1.0774   -3.2184 C.ar    1  UNL1        0.0000
     14 C          -0.0975   -2.4476    0.0829 C.ar    1  UNL1        0.0000
     15 C          -0.1963   -2.4704    0.0689 C.ar    1  UNL1        0.0000
     16 C           0.2640   -1.2388   -2.3757 C.ar    1  UNL1        0.0000
     17 C           1.7527   -1.1962   -2.1587 C.ar    1  UNL1        0.0000
     18 N           0.6801   -0.7907    1.1131 N.ar    1  UNL1        0.0000
     19 C           0.1178   -0.8027    1.1209 C.ar    1  UNL1        0.0000
     20 C          -1.2371   -0.6165    1.7857 C.ar    1  UNL1        0.0000
     21 N          -2.4603    1.1795   -0.1691 N.ar    1  UNL1        0.0000
     22 C          -0.8839    0.2465   -1.9001 C.ar    1  UNL1        0.0000
     23 C          -0.6869   -4.0540   -1.5850 C.3     1  UNL1        0.0000
     24 C          -0.9719    1.0463    0.5303 C.3     1  UNL1        0.0000
     25 C           0.7787    0.7703   -1.8613 C.3     1  UNL1        0.0000
     26 C          -1.1555    0.3871    0.5090 C.3     1  UNL1        0.0000
     27 C          -2.9163   -0.5910    0.3960 C.3     1  UNL1        0.0000
     28 C           2.1196   -0.0693    2.3565 C.3     1  UNL1        0.0000
     29 C           1.6628    1.1913    2.4796 C.3     1  UNL1        0.0000
     30 C          -2.0147   -1.8480    0.3640 C.3     1  UNL1        0.0000
     31 C          -0.8676    0.2741   -1.9039 C.ar    1  UNL1        0.0000
     32 N          -2.5831    2.7914    0.3402 N.ar    1  UNL1        0.0000
     33 N          -0.2485    1.3431    2.5465 N.ar    1  UNL1        0.0000
     34 C           0.1834   -0.0926    1.2192 C.ar    1  UNL1        0.0000
     35 C           0.5055    1.1725   -0.2711 C.ar    1  UNL1        0.0000
     36 H          -1.4245    0.4275    3.1296 H       1  UNL1        0.0000
     37 H          -0.7377   -4.1248    1.8322 H       1  UNL1        0.0000
     38 H          -0.4335    2.2087    3.5938 H       1  UNL1        0.0000
     39 H          -0.5269   -2.2760   -2.9411 H       1  UNL1        0.0000
     40 H          -3.1830   -0.5826    1.7622 H       1  UNL1        0.0000
     41 H           2.7859   -2.3575    2.5666 H       1  UNL1        0.0000
     42 H          -3.2414   -0.6356   -1.0670 H       1  UNL1        0.0000
     43 H          -0.7084    1.5518   -4.3477 H       1  UNL1        0.0000
     44 H           2.0345    1.6408   -1.2510 H       1  UNL1        0.0000
     45 H           1.5511   -1.5269    0.2903 H       1  UNL1        0.0000
     46 H          -1.6854   -0.9032    3.4727 H       1  UNL1        0.0000
     47 H           0.7685   -2.9211   -3.3912 H       1  UNL1        0.0000
     48 H           4.1438   -1.1042   -1.8622 H       1  UNL1        0.0000
     49 H          -0.7240    1.1670    4.5314 H       1  UNL1        0.0000
     50 H          -1.2364   -2.2874    1.7023 H       1  UNL1        0.0000
     51 H          -1.0954   -1.3472   -1.8429 H       1  UNL1        0.0000
     52 H          -0.9855    3.3341   -1.1807 H       1  UNL1        0.0000
     53 H           0.4916   -3.3507   -2.1963 H       1  UNL1        0.0000
     54 H          -1.1918    2.1776   -0.6078 H       1  UNL1        0.0000
     55 H           1.4630   -1.9792   -0.9330 H       1  UNL1        0.0000
     56 H           3.1726    0.5835    0.7730 H       1  UNL1        0.0000
     57 H           0.5598   -1.7126   -3.6897 H       1  UNL1        0.0000
     58 H          -1.6715   -1.8697   -3.4149 H       1  UNL1        0.0000
     59 H           0.7491   -0.8519    2.5452 H       1  UNL1        0.0000
     60 H          -2.7244    2.3011   -1.1067 H       1  UNL1        0.0000
     61 H           0.7963    1.1918   -3.5355 H       1  UNL1        0.0000
     62 H           1.8326    1.5019   -4.4285 H       1  UNL1        0.0000
     63 H           1.0008    3.8335   -0.5191 H       1  UNL1        0.0000
     64 H           2.6355   -0.5672   -0.3160 H       1  UNL1        0.0000
     65 H          -1.9033   -3.5630    1.9206 H       1  UNL1        0.0000
     66 H          -1.6099    1.2379    1.8764 H       1  UNL1        0.0000
     67 H           2.8308    1.7554    1.4564 H       1  UNL1        0.0000
     68 EU          1.5482    1.9503    0.3314 Eu      1  UNL1        0.0000
@<TRIPOS>BOND
     1     1     2    2
     2     2     3   am
     3     3     4    1
     4     3     5    1
     5     5     6    1
     6     6     7    1
     7     2     8    1
     8     8     9   ar
     9     9    10   ar
    10     8    11   ar
    11    11    12   ar
    12    12    13   ar
    13    10    13   ar
    14    13    14   ar
    15    14    15   ar
    16    15    16   ar
    17    16    17   ar
    18    12    17   ar
    19    17    18   ar
    20    18    19   ar
    21    19    20    1
    22    20    21   ar
    23    21    22   ar
    24    22    23    1
    25    23    24    1
    26    23    25    1
    27    23    26    1
    28    26    27    1
    29    27    28    1
    30    28    29    1
    31    28    30    1
    32    22    31   ar
    33    28    31    1
    34    31    32   ar
    35    32    33   ar
    36    20    33   ar
    37    19    34   ar
    38    34    35   ar
    39    16    35   ar
    40     4    36    1
    41     4    37    1
    42     4    38    1
    43     5    39    1
    44     5    40    1
    45     6    41    1
    46     6    42    1
    47     7    43    1
    48     7    44    1
    49     7    45    1
    50     9    46    1
    51    10    47    1
    52    14    48    1
    53    15    49    1
    54    24    50    1
    55    24    51    1
    56    24    52    1
    57    25    53    1
    58    25    54    1
    59    25    55    1
    60    26    56    1
    61    26    57    1
    62    27    58    1
    63    27    59    1
    64    29    60    1
    65    29    61    1
    66    29    62    1
    67    30    63    1
    68    30    64    1
    69    30    65    1
    70    34    66    1
    71    35    67    1
    72    68     1    1
    73    68    33    1
    74    68    18    1
    75    68    11    1
@<TRIPOS>MOLECULE
*****
 68 75 0 0 0
SMALL
GASTEIGER

@<TRIPOS>ATOM
      1 O           0.7011   -0.5707   -1.2148 O.2     1  UNL1        0.0000
      2 C          -1.7947   -0.2884   -0.7075 C.2     1  UNL1        0.0000
      3 N          -0.5811   -1.4974    2.9097 N.am    1  UNL1        0.0000
      4 C          -2.5809   -1.8211    2.7604 C.3     1  UNL1        0.0000
      5 C          -0.3658   -1.8528    2.8408 C.3     1  UNL1        0.0000
      6 C           1.9980   -2.4911    2.6725 C.3     1  UNL1        0.0000
      7 C          -1.6248   -3.5688    0.0813 C.3     1  UNL1        0.0000
      8 C          -0.3639    2.6617    0.5639 C.ar    1  UNL1        0.0000
      9 C           1.6698    0.7128    0.8387 C.ar    1  UNL1        0.0000
     10 C          -0.0736    0.1345   -4.0663 C.ar    1  UNL1        0.0000
     11 N           0.2046    2.7451   -0.6262 N.ar    1  UNL1        0.0000
     12 C           0.9528    2.3280   -2.2111 C.ar    1  UNL1        0.0000
     13 C          -1.4218    1.0774   -3.2184 C.ar    1  UNL1        0.0000
     14 C          -0.0975   -2.4476    0.0829 C.ar    1  UNL1        0.0000
     15 C          -0.1963   -2.4704    0.0689 C.ar    1  UNL1        0.0000
     16 C           0.2640   -1.2388   -2.3757 C.ar    1  UNL1        0.0000
     17 C           1.7527   -1.1962   -2.1587 C.ar    1  UNL1        0.0000
     18 N           0.6801   -0.7907    1.1131 N.ar    1  UNL1        0.0000
     19 C           0.1178   -0.8027    1.1209 C.ar    1  UNL1        0.0000
     20 C          -1.2371   -0.6165    1.7857 C.ar    1  UNL1        0.0000
     21 N          -2.4603    1.1795   -0.1691 N.ar    1  UNL1        0.0000
     22 C          -0.8839    0.2465   -1.9001 C.ar    1  UNL1        0.0000
     23 C          -0.6869   -4.0540   -1.5850 C.3     1  UNL1        0.0000
     24 C          -0.9719    1.0463    0.5303 C.3     1  UNL1        0.0000
     25 C           0.7787    0.7703   -1.8613 C.3     1  UNL1        0.0000
     26 C          -1.1555    0.3871    0.5090 C.3     1  UNL1        0.0000
     27 C          -2.9163   -0.5910    0.3960 C.3     1  UNL1        0.0000
     28 C           2.1196   -0.0693    2.3565 C.3     1  UNL1        0.0000
     29 C           1.6628    1.1913    2.4796 C.3     1  UNL1        0.0000
     30 C          -2.0147   -1.8480    0.3640 C.3     1  UNL1        0.0000
     31 C          -0.8676    0.2741   -1.9039 C.ar    1  UNL1        0.0000
     32 N          -2.5831    2.7914    0.3402 N.ar    1  UNL1        0.0000
     33 N          -0.2485    1.3431    2.5465 N.ar    1  UNL1        0.0000
     34 C           0.1834   -0.0926    1.2192 C.ar    1  UNL1        0.0000
     35 C           0.5055    1.1725   -0.2711 C.ar    1  UNL1        0.0000
     36 H          -1.4245    0.4275    3.1296 H       1  UNL1        0.0000
     37 H          -0.7377   -4.1248    1.8322 H       1  UNL1        0.0000
     38 H          -0.4335    2.2087    3.5938 H       1  UNL1        0.0000
     39 H          -0.5269   -2.2760   -2.9411 H       1  UNL1        0.0000
     40 H          -3.1830   -0.5826    1.7622 H       1  UNL1        0.0000
     41 H           2.7859   -2.3575    2.5666 H       1  UNL1        0.0000
     42 H          -3.2414   -0.6356   -1.0670 H       1  UNL1        0.0000
     43 H          -0.7084    1.5518   -4.3477 H       1  UNL1        0.0000
     44 H           2.0345    1.6408   -1.2510 H       1  UNL1        0.0000
     45 H           1.5511   -1.5269    0.2903 H       1  UNL1        0.0000
     46 H          -1.6854   -0.9032    3.4727 H       1  UNL1        0.0000
     47 H           0.7685   -2.9211   -3.3912 H       1  UNL1        0.0000
     48 H           4.1438   -1.1042   -1.8622 H       1  UNL1        0.0000
     49 H          -0.7240    1.1670    4.5314 H       1  UNL1        0.0000
     50 H          -1.2364   -2.2874    1.7023 H       1  UNL1        0.0000
     51 H          -1.0954   -1.3472   -1.8429 H       1  UNL1        0.0000
     52 H          -0.9855    3.3341   -1.1807 H       1  UNL1        0.0000
     53 H           0.4916   -3.3507   -2.1963 H       1  UNL1        0.0000
     54 H          -1.1918    2.1776   -0.6078 H       1  UNL1        0.0000
     55 H           1.4630   -1.9792   -0.9330 H       1  UNL1        0.0000
     56 H           3.1726    0.5835    0.7730 H       1  UNL1        0.0000
     57 H           0.5598   -1.7126   -3.6897 H       1  UNL1        0.0000
     58 H          -1.6715   -1.8697   -3.4149 H       1  UNL1        0.0000
     59 H           0.7491   -0.8519    2.5452 H       1  UNL1        0.0000
     60 H          -2.7244    2.3011   -1.1067 H       1  UNL1        0.0000
     61 H           0.7963    1.1918   -3.5355 H       1  UNL1        0.0000
     62 H           1.8326    1.5019   -4.4285 H       1  UNL1        0.0000
     63 H           1.0008    3.8335   -0.5191 H       1  UNL1        0.0000
     64 H           2.6355   -0.5672   -0.3160 H       1  UNL1        0.0000
     65 H          -1.9033   -3.5630    1.9206 H       1  UNL1        0.0000
     66 H          -1.6099    1.2379    1.8764 H       1  UNL1        0.0000
     67 H           2.8308    1.7554    1.4564 H       1  UNL1        0.0000
     68 EU          1.5482    1.9503    0.3314 Eu      1  UNL1        0.0000
@<TRIPOS>BOND
     1     1     2    2
     2     2     3   am
     3     3     4    1
     4     3     5    1
     5     5     6    1
     6     6     7    1
     7     2     8    1
     8     8     9   ar
     9     9    10   ar
    10     8    11   ar
    11    11    12   ar
    12    12    13   ar
    13    10    13   ar
    14    13    14   ar
    15    14    15   ar
    16    15    16   ar
    17    16    17   ar
    18    12    17   ar
    19    17    18   ar
    20    18    19   ar
    21    19    20    1
    22    20    21   ar
    23    21    22   ar
    24    22    23    1
    25    23    24    1
    26    23    25    1
    27    23    26    1
    28    26    27    1
    29    27    28    1
    30    28    29    1
    31    28    30    1
    32    22    31   ar
    33    28    31    1
    34    31    32   ar
    35    32    33   ar
    36    20    33   ar
    37    19    34   ar
    38    34    35   ar
    39    16    35   ar
    40     4    36    1
    41     4    37    1
    42     4    38    1
    43     5    39    1
    44     5    40    1
    45     6    41    1
    46     6    42    1
    47     7    43    1
    48     7    44    1
    49     7    45    1
    50     9    46    1
    51    10    47    1
    52    14    48    1
    53    15    49    1
    54    24    50    1
    55    24    51    1
    56    24    52    1
    57    25    53    1
    58    25    54    1
    59    25    55    1
    60    26    56    1
    61    26    57    1
    62    27    58    1
    63    27    59    1
    64    29    60    1
    65    29    61    1
    66    29    62    1
    67    30    63    1
    68    30    64    1
    69    30    65    1
    70    34    66    1
    71    35    67    1
    72    68     1    1
    73    68    33    1
    74    68    18    1
    75    68    11    1
@<TRIPOS>MOLECULE
*****
 68 75 0 0 0
SMALL
GASTEIGER

@<TRIPOS>ATOM
      1 O           0.7011   -0.5707   -1.2148 O.2     1  UNL1        0.0000
      2 C          -1.7947   -0.2884   -0.7075 C.2     1  UNL1        0.0000
      3 N          -0.5811   -1.4974    2.9097 N.am    1  UNL1        0.0000
      4 C          -2.5809   -1.8211    2.7604 C.3     1  UNL1        0.0000
      5 C          -0.3658   -1.8528    2.8408 C.3     1  UNL1        0.0000
      6 C           1.9980   -2.4911    2.6725 C.3     1  UNL1        0.0000
      7 C          -1.6248   -3.5688    0.0813 C.3     1  UNL1        0.0000
      8 C          -0.3639    2.6617    0.5639 C.ar    1  UNL1        0.0000
      9 C           1.6698    0.7128    0.8387 C.ar    1  UNL1        0.0000
     10 C          -0.0736    0.1345   -4.0663 C.ar    1  UNL1        0.0000
     11 N           0.2046    2.7451   -0.6262 N.ar    1  UNL1        0.0000
     12 C           0.9528    2.3280   -2.2111 C.ar    1  UNL1        0.0000
     13 C          -1.4218    1.0774   -3.2184 C.ar    1  UNL1        0.0000
     14 C          -0.0975   -2.4476    0.0829 C.ar    1  UNL1        0.0000
     15 C          -0.1963   -2.4704    0.0689 C.ar    1  UNL1        0.0000
     16 C           0.2640   -1.2388   -2.3757 C.ar    1  UNL1        0.0000
     17 C           1.7527   -1.1962   -2.1587 C.ar    1  UNL1        0.0000
     18 N           0.6801   -0.7907    1.1131 N.ar    1  UNL1        0.0000
     19 C           0.1178   -0.8027    1.1209 C.ar    1  UNL1        0.0000
     20 C          -1.2371   -0.6165    1.7857 C.ar    1  UNL1        0.0000
     21 N          -2.4603    1.1795   -0.1691 N.ar    1  UNL1        0.0000
     22 C          -0.8839    0.2465   -1.9001 C.ar    1  UNL1        0.0000
     23 C          -0.6869   -4.0540   -1.5850 C.3     1  UNL1        0.0000
     24 C          -0.9719    1.0463    0.5303 C.3     1  UNL1        0.0000
     25 C           0.7787    0.7703   -1.8613 C.3     1  UNL1        0.0000
     26 C          -1.1555    0.3871    0.5090 C.3     1  UNL1        0.0000
     27 C          -2.9163   -0.5910    0.3960 C.3     1  UNL1        0.0000
     28 C           2.1196   -0.0693    2.3565 C.3     1  UNL1        0.0000
     29 C           1.6628    1.1913    2.4796 C.3     1  UNL1        0.0000
     30 C          -2.0147   -1.8480    0.3640 C.3     1  UNL1        0.0000
     31 C          -0.8676    0.2741   -1.9039 C.ar    1  UNL1        0.0000
     32 N          -2.5831    2.7914    0.3402 N.ar    1  UNL1        0.0000
     33 N          -0.2485    1.3431    2.5465 N.ar    1  UNL1        0.0000
     34 C           0.1834   -0.0926    1.2192 C.ar    1  UNL1        0.0000
     35 C           0.5055    1.1725   -0.2711 C.ar    1  UNL1        0.0000
     36 H          -1.4245    0.4275    3.1296 H       1  UNL1        0.0000
     37 H          -0.7377   -4.1248    1.8322 H       1  UNL1        0.0000
     38 H          -0.4335    2.2087    3.5938 H       1  UNL1        0.0000
     39 H          -0.5269   -2.2760   -2.9411 H       1  UNL1        0.0000
     40 H          -3.1830   -0.5826    1.7622 H       1  UNL1        0.0000
     41 H           2.7859   -2.3575    2.5666 H       1  UNL1        0.0000
     42 H          -3.2414   -0.6356   -1.0670 H       1  UNL1        0.0000
     43 H          -0.7084    1.5518   -4.3477 H       1  UNL1        0.0000
     44 H           2.0345    1.6408   -1.2510 H       1  UNL1        0.0000
     45 H           1.5511   -1.5269    0.2903 H       1  UNL1        0.0000
     46 H          -1.6854   -0.9032    3.4727 H       1  UNL1        0.0000
     47 H           0.7685   -2.9211   -3.3912 H       1  UNL1        0.0000
     48 H           4.1438   -1.1042   -1.8622 H       1  UNL1        0.0000
     49 H          -0.7240    1.1670    4.5314 H       1  UNL1        0.0000
     50 H          -1.2364   -2.2874    1.7023 H       1  UNL1        0.0000
     51 H          -1.0954   -1.3472   -1.8429 H       1  UNL1        0.0000
     52 H          -0.9855    3.3341   -1.1807 H       1  UNL1        0.0000
     53 H           0.4916   -3.3507   -2.1963 H       1  UNL1        0.0000
     54 H          -1.1918    2.1776   -0.6078 H       1  UNL1        0.0000
     55 H           1.4630   -1.9792   -0.9330 H       1  UNL1        0.0000
     56 H           3.1726    0.5835    0.7730 H       1  UNL1        0.0000
     57 H           0.5598   -1.7126   -3.6897 H       1  UNL1        0.0000
     58 H          -1.6715   -1.8697   -3.4149 H       1  UNL1        0.0000
     59 H           0.7491   -0.8519    2.5452 H       1  UNL1        0.0000
     60 H          -2.7244    2.3011   -1.1067 H       1  UNL1        0.0000
     61 H           0.7963    1.1918   -3.5355 H       1  UNL1        0.0000
     62 H           1.8326    1.5019   -4.4285 H       1  UNL1        0.0000
     63 H           1.0008    3.8335   -0.5191 H       1  UNL1        0.0000
     64 H           2.6355   -0.5672   -0.3160 H       1  UNL1        0.0000
     65 H          -1.9033   -3.5630    1.9206 H       1  UNL1        0.0000
     66 H          -1.6099    1.2379    1.8764 H       1  UNL1        0.0000
     67 H           2.8308    1.7554    1.4564 H       1  UNL1        0.0000
     68 EU          1.5482    1.9503    0.3314 Eu      1  UNL1        0.0000
@<TRIPOS>BOND
     1     1     2    2
     2     2     3   am
     3     3     4    1
     4     3     5    1
     5     5     6    1
     6     6     7    1
     7     2     8    1
     8     8     9   ar
     9     9    10   ar
    10     8    11   ar
    11    11    12   ar
    12    12    13   ar
    13    10    13   ar
    14    13    14   ar
    15    14    15   ar
    16    15    16   ar
    17    16    17   ar
    18    12    17   ar
    19    17    18   ar
    20    18    19   ar
    21    19    20    1
    22    20    21   ar
    23    21    22   ar
    24    22    23    1
    25    23    24    1
    26    23    25    1
    27    23    26    1
    28    26    27    1
    29    27    28    1
    30    28    29    1
    31    28    30    1
    32    22    31   ar
    33    28    31    1
    34    31    32   ar
    35    32    33   ar
    36    20    33   ar
    37    19    34   ar
    38    34    35   ar
    39    16    35   ar
    40     4    36    1
    41     4    37    1
    42     4    38    1
    43     5    39    1
    44     5    40    1
    45     6    41    1
    46     6    42    1
    47     7    43    1
    48     7    44    1
    49     7    45    1
    50     9    46    1
    51    10    47    1
    52    14    48    1
    53    15    49    1
    54    24    50    1
    55    24    51    1
    56    24    52    1
    57    25    53    1
    58    25    54    1
    59    25    55    1
    60    26    56    1
    61    26    57    1
    62    27    58    1
    63    27    59    1
    64    29    60    1
    65    29    61    1
    66    29    62    1
    67    30    63    1
    68    30    64    1
    69    30    65    1
    70    34    66    1
    71    35    67    1
    72    68     1    1
    73    68    33    1
    74    68    18    1
    75    68    11    1
@<TRIPOS>MOLECULE
*****
 68 75 0 0 0
SMALL
GASTEIGER

@<TRIPOS>ATOM
      1 O           0.7011   -0.5707   -1.2148 O.2     1  UNL1        0.0000
      2 C          -1.7947   -0.2884   -0.7075 C.2     1  UNL1        0.0000
      3 N          -0.5811   -1.4974    2.9097 N.am    1  UNL1        0.0000
      4 C          -2.5809   -1.8211    2.7604 C.3     1  UNL1        0.0000
      5 C          -0.3658   -1.8528    2.8408 C.3     1  UNL1        0.0000
      6 C           1.9980   -2.4911    2.6725 C.3     1  UNL1        0.0000
      7 C          -1.6248   -3.5688    0.0813 C.3     1  UNL1        0.0000
      8 C          -0.3639    2.6617    0.5639 C.ar    1  UNL1        0.0000
      9 C           1.6698    0.7128    0.8387 C.ar    1  UNL1        0.0000
     10 C          -0.0736    0.1345   -4.0663 C.ar    1  UNL1        0.0000
     11 N           0.2046    2.7451   -0.6262 N.ar    1  UNL1        0.0000
     12 C           0.9528    2.3280   -2.2111 C.ar    1  UNL1        0.0000
     13 C          -1.4218    1.0774   -3.2184 C.ar    1  UNL1        0.0000
     14 C          -0.0975   -2.4476    0.0829 C.ar    1  UNL1        0.0000
     15 C          -0.1963   -2.4704    0.0689 C.ar    1  UNL1        0.0000
     16 C           0.2640   -1.2388   -2.3757 C.ar    1  UNL1        0.0000
     17 C           1.7527   -1.1962   -2.1587 C.ar    1  UNL1        0.0000
     18 N           0.6801   -0.7907    1.1131 N.ar    1  UNL1        0.0000
     19 C           0.1178   -0.8027    1.1209 C.ar    1  UNL1        0.0000
     20 C          -1.2371   -0.6165    1.7857 C.ar    1  UNL1        0.0000
     21 N          -2.4603    1.1795   -0.1691 N.ar    1  UNL1        0.0000
     22 C          -0.8839    0.2465   -1.9001 C.ar    1  UNL1        0.0000
     23 C          -0.6869   -4.0540   -1.5850 C.3     1  UNL1        0.0000
     24 C          -0.9719    1.0463    0.5303 C.3     1  UNL1        0.0000
     25 C           0.7787    0.7703   -1.8613 C.3     1  UNL1        0.0000
     26 C          -1.1555    0.3871    0.5090 C.3     1  UNL1        0.0000
     27 C          -2.9163   -0.5910    0.3960 C.3     1  UNL1        0.0000
     28 C           2.1196   -0.0693    2.3565 C.3     1  UNL1        0.0000
     29 C           1.6628    1.1913    2.4796 C.3     1  UNL1        0.0000
     30 C          -2.0147   -1.8480    0.3640 C.3     1  UNL1        0.0000
     31 C          -0.8676    0.2741   -1.9039 C.ar    1  UNL1        0.0000
     32 N          -2.5831    2.7914    0.3402 N.ar    1  UNL1        0.0000
     33 N          -0.2485    1.3431    2.5465 N.ar    1  UNL1        0.0000
     34 C           0.1834   -0.0926    1.2192 C.ar    1  UNL1        0.0000
     35 C           0.5055    1.1725   -0.2711 C.ar    1  UNL1        0.0000
     36 H          -1.4245    0.4275    3.1296 H       1  UNL1        0.0000
     37 H          -0.7377   -4.1248    1.8322 H       1  UNL1        0.0000
     38 H          -0.4335    2.2087    3.5938 H       1  UNL1        0.0000
     39 H          -0.5269   -2.2760   -2.9411 H       1  UNL1        0.0000
     40 H          -3.1830   -0.5826    1.7622 H       1  UNL1        0.0000
     41 H           2.7859   -2.3575    2.5666 H       1  UNL1        0.0000
     42 H          -3.2414   -0.6356   -1.0670 H       1  UNL1        0.0000
     43 H          -0.7084    1.5518   -4.3477 H       1  UNL1        0.0000
     44 H           2.0345    1.6408   -1.2510 H       1  UNL1        0.0000
     45 H           1.5511   -1.5269    0.2903 H       1  UNL1        0.0000
     46 H          -1.6854   -0.9032    3.4727 H       1  UNL1        0.0000
     47 H           0.7685   -2.9211   -3.3912 H       1  UNL1        0.0000
     48 H           4.1438   -1.1042   -1.8622 H       1  UNL1        0.0000
     49 H          -0.7240    1.1670    4.5314 H       1  UNL1        0.0000
     50 H          -1.2364   -2.2874    1.7023 H       1  UNL1        0.0000
     51 H          -1.0954   -1.3472   -1.8429 H       1  UNL1        0.0000
     52 H          -0.9855    3.3341   -1.1807 H       1  UNL1        0.0000
     53 H           0.4916   -3.3507   -2.1963 H       1  UNL1        0.0000
     54 H          -1.1918    2.1776   -0.6078 H       1  UNL1        0.0000
     55 H           1.4630   -1.9792   -0.9330 H       1  UNL1        0.0000
     56 H           3.1726    0.5835    0.7730 H       1  UNL1        0.0000
     57 H           0.5598   -1.7126   -3.6897 H       1  UNL1        0.0000
     58 H          -1.6715   -1.8697   -3.4149 H       1  UNL1        0.0000
     59 H           0.7491   -0.8519    2.5452 H       1  UNL1        0.0000
     60 H          -2.7244    2.3011   -1.1067 H       1  UNL1        0.0000
     61 H           0.7963    1.1918   -3.5355 H       1  UNL1        0.0000
     62 H           1.8326    1.5019   -4.4285 H       1  UNL1        0.0000
     63 H           1.0008    3.8335   -0.5191 H       1  UNL1        0.0000
     64 H           2.6355   -0.5672   -0.3160 H       1  UNL1        0.0000
     65 H          -1.9033   -3.5630    1.9206 H       1  UNL1        0.0000
     66 H          -1.6099    1.2379    1.8764 H       1  UNL1        0.0000
     67 H           2.8308    1.7554    1.4564 H       1  UNL1        0.0000
     68 EU          1.5482    1.9503    0.3314 Eu      1  UNL1        0.0000
@<TRIPOS>BOND
     1     1     2    2
     2     2     3   am
     3     3     4    1
     4     3     5    1
     5     5     6    1
     6     6     7    1
     7     2     8    1
     8     8     9   ar
     9     9    10   ar
    10     8    11   ar
    11    11    12   ar
    12    12    13   ar
    13    10    13   ar
    14    13    14   ar
    15    14    15   ar
    16    15    16   ar
    17    16    17   ar
    18    12    17   ar
    19    17    18   ar
    20    18    19   ar
    21    19    20    1
    22    20    21   ar
    23    21    22   ar
    24    22    23    1
    25    23    24    1
    26    23    25    1
    27    23    26    1
    28    26    27    1
    29    27    28    1
    30    28    29    1
    31    28    30    1
    32    22    31   ar
    33    28    31    1
    34    31    32   ar
    35    32    33   ar
    36    20    33   ar
    37    19    34   ar
    38    34    35   ar
    39    16    35   ar
    40     4    36    1
    41     4    37    1
    42     4    38    1
    43     5    39    1
    44     5    40    1
    45     6    41    1
    46     6    42    1
    47     7    43    1
    48     7    44    1
    49     7    45    1
    50     9    46    1
    51    10    47    1
    52    14    48    1
    53    15    49    1
    54    24    50    1
    55    24    51    1
    56    24    52    1
    57    25    53    1
    58    25    54    1
    59    25    55    1
    60    26    56    1
    61    26    57    1
    62    27    58    1
    63    27    59    1
    64    29    60    1
    65    29    61    1
    66    29    62    1
    67    30    63    1
    68    30    64    1
    69    30    65    1
    70    34    66    1
    71    35    67    1
    72    68     1    1
    73    68    33    1
    74    68    18    1
    75    68    11    1
@<TRIPOS>MOLECULE
*****
 68 75 0 0 0
SMALL
GASTEIGER

@<TRIPOS>ATOM
      1 O           0.7011   -0.5707   -1.2148 O.2     1  UNL1        0.0000
      2 C          -1.7947   -0.2884   -0.7075 C.2     1  UNL1        0.0000
      3 N          -0.5811   -1.4974    2.9097 N.am    1  UNL1        0.0000
      4 C          -2.5809   -1.8211    2.7604 C.3     1  UNL1        0.0000
      5 C          -0.3658   -1.8528    2.8408 C.3     1  UNL1        0.0000
      6 C           1.9980   -2.4911    2.6725 C.3     1  UNL1        0.0000
      7 C          -1.6248   -3.5688    0.0813 C.3     1  UNL1        0.0000
      8 C          -0.3639    2.6617    0.5639 C.ar    1  UNL1        0.0000
      9 C           1.6698    0.7128    0.8387 C.ar    1  UNL1        0.0000
     10 C          -0.0736    0.1345   -4.0663 C.ar    1  UNL1        0.0000
     11 N           0.2046    2.7451   -0.6262 N.ar    1  UNL1        0.0000
     12 C           0.9528    2.3280   -2.2111 C.ar    1  UNL1        0.0000
     13 C          -1.4218    1.0774   -3.2184 C.ar    1  UNL1        0.0000
     14 C          -0.0975   -2.4476    0.0829 C.ar    1  UNL1        0.0000
     15 C          -0.1963   -2.4704    0.0689 C.ar    1  UNL1        0.0000
     16 C           0.2640   -1.2388   -2.3757 C.ar    1  UNL1        0.0000
     17 C           1.7527   -1.1962   -2.1587 C.ar    1  UNL1        0.0000
     18 N           0.6801   -0.7907    1.1131 N.ar    1  UNL1        0.0000
     19 C           0.1178   -0.8027    1.1209 C.ar    1  UNL1        0.0000
     20 C          -1.2371   -0.6165    1.7857 C.ar    1  UNL1        0.0000
     21 N          -2.4603    1.1795   -0.1691 N.ar    1  UNL1        0.0000
     22 C          -0.8839    0.2465   -1.9001 C.ar    1  UNL1        0.0000
     23 C          -0.6869   -4.0540   -1.5850 C.3     1  UNL1        0.0000
     24 C          -0.9719    1.0463    0.5303 C.3     1  UNL1        0.0000
     25 C           0.7787    0.7703   -1.8613 C.3     1  UNL1        0.0000
     26 C          -1.1555    0.3871    0.5090 C.3     1  UNL1        0.0000
     27 C          -2.9163   -0.5910    0.3960 C.3     1  UNL1        0.0000
     28 C           2.1196   -0.0693    2.3565 C.3     1  UNL1        0.0000
     29 C           1.6628    1.1913    2.4796 C.3     1  UNL1        0.0000
     30 C          -2.0147   -1.8480    0.3640 C.3     1  UNL1        0.0000
     31 C          -0.8676    0.2741   -1.9039 C.ar    1  UNL1        0.0000
     32 N          -2.5831    2.7914    0.3402 N.ar    1  UNL1        0.0000
     33 N          -0.2485    1.3431    2.5465 N.ar    1  UNL1        0.0000
     34 C           0.1834   -0.0926    1.2192 C.ar    1  UNL1        0.0000
     35 C           0.5055    1.1725   -0.2711 C.ar    1  UNL1        0.0000
     36 H          -1.4245    0.4275    3.1296 H       1  UNL1        0.0000
     37 H          -0.7377   -4.1248    1.8322 H       1  UNL1        0.0000
     38 H          -0.4335    2.2087    3.5938 H       1  UNL1        0.0000
     39 H          -0.5269   -2.2760   -2.9411 H       1  UNL1        0.0000
     40 H          -3.1830   -0.5826    1.7622 H       1  UNL1        0.0000
     41 H           2.7859   -2.3575    2.5666 H       1  UNL1        0.0000
     42 H          -3.2414   -0.6356   -1.0670 H       1  UNL1        0.0000
     43 H          -0.7084    1.5518   -4.3477 H       1  UNL1        0.0000
     44 H           2.0345    1.6408   -1.2510 H       1  UNL1        0.0000
     45 H           1.5511   -1.5269    0.2903 H       1  UNL1        0.0000
     46 H          -1.6854   -0.9032    3.4727 H       1  UNL1        0.0000
     47 H           0.7685   -2.9211   -3.3912 H       1  UNL1        0.0000
     48 H           4.1438   -1.1042   -1.8622 H       1  UNL1        0.0000
     49 H          -0.7240    1.1670    4.5314 H       1  UNL1        0.0000
     50 H          -1.2364   -2.2874    1.7023 H       1  UNL1        0.0000
     51 H          -1.0954   -1.3472   -1.8429 H       1  UNL1        0.0000
     52 H          -0.9855    3.3341   -1.1807 H       1  UNL1        0.0000
     53 H           0.4916   -3.3507   -2.1963 H       1  UNL1        0.0000
     54 H          -1.1918    2.1776   -0.6078 H       1  UNL1        0.0000
     55 H           1.4630   -1.9792   -0.9330 H       1  UNL1        0.0000
     56 H           3.1726    0.5835    0.7730 H       1  UNL1        0.0000
     57 H           0.5598   -1.7126   -3.6897 H       1  UNL1        0.0000
     58 H          -1.6715   -1.8697   -3.4149 H       1  UNL1        0.0000
     59 H           0.7491   -0.8519    2.5452 H       1  UNL1        0.0000
     60 H          -2.7244    2.3011   -1.1067 H       1  UNL1        0.0000
     61 H           0.7963    1.1918   -3.5355 H       1  UNL1        0.0000
     62 H           1.8326    1.5019   -4.4285 H       1  UNL1        0.0000
     63 H           1.0008    3.8335   -0.5191 H       1  UNL1        0.0000
     64 H           2.6355   -0.5672   -0.3160 H       1  UNL1        0.0000
     65 H          -1.9033   -3.5630    1.9206 H       1  UNL1        0.0000
     66 H          -1.6099    1.2379    1.8764 H       1  UNL1        0.0000
     67 H           2.8308    1.7554    1.4564 H       1  UNL1        0.0000
     68 EU          1.5482    1.9503    0.3314 Eu      1  UNL1        0.0000
@<TRIPOS>BOND
     1     1     2    2
     2     2     3   am
     3     3     4    1
     4     3     5    1
     5     5     6    1
     6     6     7    1
     7     2     8    1
     8     8     9   ar
     9     9    10   ar
    10     8    11   ar
    11    11    12   ar
    12    12    13   ar
    13    10    13   ar
    14    13    14   ar
    15    14    15   ar
    16    15    16   ar
    17    16    17   ar
    18    12    17   ar
    19    17    18   ar
    20    18    19   ar
    21    19    20    1
    22    20    21   ar
    23    21    22   ar
    24    22    23    1
    25    23    24    1
    26    23    25    1
    27    23    26    1
    28    26    27    1
    29    27    28    1
    30    28    29    1
    31    28    30    1
    32    22    31   ar
    33    28    31    1
    34    31    32   ar
    35    32    33   ar
    36    20    33   ar
    37    19    34   ar
    38    34    35   ar
    39    16    35   ar
    40     4    36    1
    41     4    37    1
    42     4    38    1
    43     5    39    1
    44     5    40    1
    45     6    41    1
    46     6    42    1
    47     7    43    1
    48     7    44    1
    49     7    45    1
    50     9    46    1
    51    10    47    1
    52    14    48    1
    53    15    49    1
    54    24    50    1
    55    24    51    1
    56    24    52    1
    57    25    53    1
    58    25    54    1
    59    25    55    1
    60    26    56    1
    61    26    57    1
    62    27    58    1
    63    27    59    1
    64    29    60    1
    65    29    61    1
    66    29    62    1
    67    30    63    1
    68    30    64    1
    69    30    65    1
    70    34    66    1
    71    35    67    1
    72    68     1    1
    73    68    33    1
    74    68    18    1
    75    68    11    1
@<TRIPOS>MOLECULE
*****
 68 75 0 0 0
SMALL
GASTEIGER

@<TRIPOS>ATOM
      1 O           0.7011   -0.5707   -1.2148 O.2     1  UNL1        0.0000
      2 C          -1.7947   -0.2884   -0.7075 C.2     1  UNL1        0.0000
      3 N          -0.5811   -1.4974    2.9097 N.am    1  UNL1        0.0000
      4 C          -2.5809   -1.8211    2.7604 C.3     1  UNL1        0.0000
      5 C          -0.3658   -1.8528    2.8408 C.3     1  UNL1        0.0000
      6 C           1.9980   -2.4911    2.6725 C.3     1  UNL1        0.0000
      7 C          -1.6248   -3.5688    0.0813 C.3     1  UNL1        0.0000
      8 C          -0.3639    2.6617    0.5639 C.ar    1  UNL1        0.0000
      9 C           1.6698    0.7128    0.8387 C.ar    1  UNL1        0.0000
     10 C          -0.0736    0.1345   -4.0663 C.ar    1  UNL1        0.0000
     11 N           0.2046    2.7451   -0.6262 N.ar    1  UNL1        0.0000
     12 C           0.9528    2.3280   -2.2111 C.ar    1  UNL1        0.0000
     13 C          -1.4218    1.0774   -3.2184 C.ar    1  UNL1        0.0000
     14 C          -0.0975   -2.4476    0.0829 C.ar    1  UNL1        0.0000
     15 C          -0.1963   -2.4704    0.0689 C.ar    1  UNL1        0.0000
     16 C           0.2640   -1.2388   -2.3757 C.ar    1  UNL1        0.0000
     17 C           1.7527   -1.1962   -2.1587 C.ar    1  UNL1        0.0000
     18 N           0.6801   -0.7907    1.1131 N.ar    1  UNL1        0.0000
     19 C           0.1178   -0.8027    1.1209 C.ar    1  UNL1        0.0000
     20 C          -1.2371   -0.6165    1.7857 C.ar    1  UNL1        0.0000
     21 N          -2.4603    1.1795   -0.1691 N.ar    1  UNL1        0.0000
     22 C          -0.8839    0.2465   -1.9001 C.ar    1  UNL1        0.0000
     23 C          -0.6869   -4.0540   -1.5850 C.3     1  UNL1        0.0000
     24 C          -0.9719    1.0463    0.5303 C.3     1  UNL1        0.0000
     25 C           0.7787    0.7703   -1.8613 C.3     1  UNL1        0.0000
     26 C          -1.1555    0.3871    0.5090 C.3     1  UNL1        0.0000
     27 C          -2.9163   -0.5910    0.3960 C.3     1  UNL1        0.0000
     28 C           2.1196   -0.0693    2.3565 C.3     1  UNL1        0.0000
     29 C           1.6628    1.1913    2.4796 C.3     1  UNL1        0.0000
     30 C          -2.0147   -1.8480    0.3640 C.3     1  UNL1        0.0000
     31 C          -0.8676    0.2741   -1.9039 C.ar    1  UNL1        0.0000
     32 N          -2.5831    2.7914    0.3402 N.ar    1  UNL1        0.0000
     33 N          -0.2485    1.3431    2.5465 N.ar    1  UNL1        0.0000
     34 C           0.1834   -0.0926    1.2192 C.ar    1  UNL1        0.0000
     35 C           0.5055    1.1725   -0.2711 C.ar    1  UNL1        0.0000
     36 H          -1.4245    0.4275    3.1296 H       1  UNL1        0.0000
     37 H          -0.7377   -4.1248    1.8322 H       1  UNL1        0.0000
     38 H          -0.4335    2.2087    3.5938 H       1  UNL1        0.0000
     39 H          -0.5269   -2.2760   -2.9411 H       1  UNL1        0.0000
     40 H          -3.1830   -0.5826    1.7622 H       1  UNL1        0.0000
     41 H           2.7859   -2.3575    2.5666 H       1  UNL1        0.0000
     42 H          -3.2414   -0.6356   -1.0670 H       1  UNL1        0.0000
     43 H          -0.7084    1.5518   -4.3477 H       1  UNL1        0.0000
     44 H           2.0345    1.6408   -1.2510 H       1  UNL1        0.0000
     45 H           1.5511   -1.5269    0.2903 H       1  UNL1        0.0000
     46 H          -1.6854   -0.9032    3.4727 H       1  UNL1        0.0000
     47 H           0.7685   -2.9211   -3.3912 H       1  UNL1        0.0000
     48 H           4.1438   -1.1042   -1.8622 H       1  UNL1        0.0000
     49 H          -0.7240    1.1670    4.5314 H       1  UNL1        0.0000
     50 H          -1.2364   -2.2874    1.7023 H       1  UNL1        0.0000
     51 H          -1.0954   -1.3472   -1.8429 H       1  UNL1        0.0000
     52 H          -0.9855    3.3341   -1.1807 H       1  UNL1        0.0000
     53 H           0.4916   -3.3507   -2.1963 H       1  UNL1        0.0000
     54 H          -1.1918    2.1776   -0.6078 H       1  UNL1        0.0000
     55 H           1.4630   -1.9792   -0.9330 H       1  UNL1        0.0000
     56 H           3.1726    0.5835    0.7730 H       1  UNL1        0.0000
     57 H           0.5598   -1.7126   -3.6897 H       1  UNL1        0.0000
     58 H          -1.6715   -1.8697   -3.4149 H       1  UNL1        0.0000
     59 H           0.7491   -0.8519    2.5452 H       1  UNL1        0.0000
     60 H          -2.7244    2.3011   -1.1067 H       1  UNL1        0.0000
     61 H           0.7963    1.1918   -3.5355 H       1  UNL1        0.0000
     62 H           1.8326    1.5019   -4.4285 H       1  UNL1        0.0000
     63 H           1.0008    3.8335   -0.5191 H       1  UNL1        0.0000
     64 H           2.6355   -0.5672   -0.3160 H       1  UNL1        0.0000
     65 H          -1.9033   -3.5630    1.9206 H       1  UNL1        0.0000
     66 H          -1.6099    1.2379    1.8764 H       1  UNL1        0.0000
     67 H           2.8308    1.7554    1.4564 H       1  UNL1        0.0000
     68 EU          1.5482    1.9503    0.3314 Eu      1  UNL1        0.0000
@<TRIPOS>BOND
     1     1     2    2
     2     2     3   am
     3     3     4    1
     4     3     5    1
     5     5     6    1
     6     6     7    1
     7     2     8    1
     8     8     9   ar
     9     9    10   ar
    10     8    11   ar
    11    11    12   ar
    12    12    13   ar
    13    10    13   ar
    14    13    14   ar
    15    14    15   ar
    16    15    16   ar
    17    16    17   ar
    18    12    17   ar
    19    17    18   ar
    20    18    19   ar
    21    19    20    1
    22    20    21   ar
    23    21    22   ar
    24    22    23    1
    25    23    24    1
    26    23    25    1
    27    23    26    1
    28    26    27    1
    29    27    28    1
    30    28    29    1
    31    28    30    1
    32    22    31   ar
    33    28    31    1
    34    31    32   ar
    35    32    33   ar
    36    20    33   ar
    37    19    34   ar
    38    34    35   ar
    39    16    35   ar
    40     4    36    1
    41     4    37    1
    42     4    38    1
    43     5    39    1
    44     5    40    1
    45     6    41    1
    46     6    42    1
    47     7    43    1
    48     7    44    1
    49     7    45    1
    50     9    46    1
    51    10    47    1
    52    14    48    1
    53    15    49    1
    54    24    50    1
    55    24    51    1
    56    24    52    1
    57    25    53    1
    58    25    54    1
    59    25    55    1
    60    26    56    1
    61    26    57    1
    62    27    58    1
    63    27    59    1
    64    29    60    1
    65    29    61    1
    66    29    62    1
    67    30    63    1
    68    30    64    1
    69    30    65    1
    70    34    66    1
    71    35    67    1
    72    68     1    1
    73    68    33    1
    74    68    18    1
    75    68    11    1
@<TRIPOS>MOLECULE
*****
 68 75 0 0 0
SMALL
GASTEIGER

@<TRIPOS>ATOM
      1 O           0.7011   -0.5707   -1.2148 O.2     1  UNL1        0.0000
      2 C          -1.7947   -0.2884   -0.7075 C.2     1  UNL1        0.0000
      3 N          -0.5811   -1.4974    2.9097 N.am    1  UNL1        0.0000
      4 C          -2.5809   -1.8211    2.7604 C.3     1  UNL1        0.0000
      5 C          -0.3658   -1.8528    2.8408 C.3     1  UNL1        0.0000
      6 C           1.9980   -2.4911    2.6725 C.3     1  UNL1        0.0000
      7 C          -1.6248   -3.5688    0.0813 C.3     1  UNL1        0.0000
      8 C          -0.3639    2.6617    0.5639 C.ar    1  UNL1        0.0000
      9 C           1.6698    0.7128    0.8387 C.ar    1  UNL1        0.0000
     10 C          -0.0736    0.1345   -4.0663 C.ar    1  UNL1        0.0000
     11 N           0.2046    2.7451   -0.6262 N.ar    1  UNL1        0.0000
     12 C           0.9528    2.3280   -2.2111 C.ar    1  UNL1        0.0000
     13 C          -1.4218    1.0774   -3.2184 C.ar    1  UNL1        0.0000
     14 C          -0.0975   -2.4476    0.0829 C.ar    1  UNL1        0.0000
     15 C          -0.1963   -2.4704    0.0689 C.ar    1  UNL1        0.0000
     16 C           0.2640   -1.2388   -2.3757 C.ar    1  UNL1        0.0000
     17 C           1.7527   -1.1962   -2.1587 C.ar    1  UNL1        0.0000
     18 N           0.6801   -0.7907    1.1131 N.ar    1  UNL1        0.0000
     19 C           0.1178   -0.8027    1.1209 C.ar    1  UNL1        0.0000
     20 C          -1.2371   -0.6165    1.7857 C.ar    1  UNL1        0.0000
     21 N          -2.4603    1.1795   -0.1691 N.ar    1  UNL1        0.0000
     22 C          -0.8839    0.2465   -1.9001 C.ar    1  UNL1        0.0000
     23 C          -0.6869   -4.0540   -1.5850 C.3     1  UNL1        0.0000
     24 C          -0.9719    1.0463    0.5303 C.3     1  UNL1        0.0000
     25 C           0.7787    0.7703   -1.8613 C.3     1  UNL1        0.0000
     26 C          -1.1555    0.3871    0.5090 C.3     1  UNL1        0.0000
     27 C          -2.9163   -0.5910    0.3960 C.3     1  UNL1        0.0000
     28 C           2.1196   -0.0693    2.3565 C.3     1  UNL1        0.0000
     29 C           1.6628    1.1913    2.4796 C.3     1  UNL1        0.0000
     30 C          -2.0147   -1.8480    0.3640 C.3     1  UNL1        0.0000
     31 C          -0.8676    0.2741   -1.9039 C.ar    1  UNL1        0.0000
     32 N          -2.5831    2.7914    0.3402 N.ar    1  UNL1        0.0000
     33 N          -0.2485    1.3431    2.5465 N.ar    1  UNL1        0.0000
     34 C           0.1834   -0.0926    1.2192 C.ar    1  UNL1        0.0000
     35 C           0.5055    1.1725   -0.2711 C.ar    1  UNL1        0.0000
     36 H          -1.4245    0.4275    3.1296 H       1  UNL1        0.0000
     37 H          -0.7377   -4.1248    1.8322 H       1  UNL1        0.0000
     38 H          -0.4335    2.2087    3.5938 H       1  UNL1        0.0000
     39 H          -0.5269   -2.2760   -2.9411 H       1  UNL1        0.0000
     40 H          -3.1830   -0.5826    1.7622 H       1  UNL1        0.0000
     41 H           2.7859   -2.3575    2.5666 H       1  UNL1        0.0000
     42 H          -3.2414   -0.6356   -1.0670 H       1  UNL1        0.0000
     43 H          -0.7084    1.5518   -4.3477 H       1  UNL1        0.0000
     44 H           2.0345    1.6408   -1.2510 H       1  UNL1        0.0000
     45 H           1.5511   -1.5269    0.2903 H       1  UNL1        0.0000
     46 H          -1.6854   -0.9032    3.4727 H       1  UNL1        0.0000
     47 H           0.7685   -2.9211   -3.3912 H       1  UNL1        0.0000
     48 H           4.1438   -1.1042   -1.8622 H       1  UNL1        0.0000
     49 H          -0.7240    1.1670    4.5314 H       1  UNL1        0.0000
     50 H          -1.2364   -2.2874    1.7023 H       1  UNL1        0.0000
     51 H          -1.0954   -1.3472   -1.8429 H       1  UNL1        0.0000
     52 H          -0.9855    3.3341   -1.1807 H       1  UNL1        0.0000
     53 H           0.4916   -3.3507   -2.1963 H       1  UNL1        0.0000
     54 H          -1.1918    2.1776   -0.6078 H       1  UNL1        0.0000
     55 H           1.4630   -1.9792   -0.9330 H       1  UNL1        0.0000
     56 H           3.1726    0.5835    0.7730 H       1  UNL1        0.0000
     57 H           0.5598   -1.7126   -3.6897 H       1  UNL1        0.0000
     58 H          -1.6715   -1.8697   -3.4149 H       1  UNL1        0.0000
     59 H           0.7491   -0.8519    2.5452 H       1  UNL1        0.0000
     60 H          -2.7244    2.3011   -1.1067 H       1  UNL1        0.0000
     61 H           0.7963    1.1918   -3.5355 H       1  UNL1        0.0000
     62 H           1.8326    1.5019   -4.4285 H       1  UNL1        0.0000
     63 H           1.0008    3.8335   -0.5191 H       1  UNL1        0.0000
     64 H           2.6355   -0.5672   -0.3160 H       1  UNL1        0.0000
     65 H          -1.9033   -3.5630    1.9206 H       1  UNL1        0.0000
     66 H          -1.6099    1.2379    1.8764 H       1  UNL1        0.0000
     67 H           2.8308    1.7554    1.4564 H       1  UNL1        0.0000
     68 EU          1.5482    1.9503    0.3314 Eu      1  UNL1        0.0000
@<TRIPOS>BOND
     1     1     2    2
     2     2     3   am
     3     3     4    1
     4     3     5    1
     5     5     6    1
     6     6     7    1
     7     2     8    1
     8     8     9   ar
     9     9    10   ar
    10     8    11   ar
    11    11    12   ar
    12    12    13   ar
    13    10    13   ar
    14    13    14   ar
    15    14    15   ar
    16    15    16   ar
    17    16    17   ar
    18    12    17   ar
    19    17    18   ar
    20    18    19   ar
    21    19    20    1
    22    20    21   ar
    23    21    22   ar
    24    22    23    1
    25    23    24    1
    26    23    25    1
    27    23    26    1
    28    26    27    1
    29    27    28    1
    30    28    29    1
    31    28    30    1
    32    22    31   ar
    33    28    31    1
    34    31    32   ar
    35    32    33   ar
    36    20    33   ar
    37    19    34   ar
    38    34    35   ar
    39    16    35   ar
    40     4    36    1
    41     4    37    1
    42     4    38    1
    43     5    39    1
    44     5    40    1
    45     6    41    1
    46     6    42    1
    47     7    43    1
    48     7    44    1
    49     7    45    1
    50     9    46    1
    51    10    47    1
    52    14    48    1
    53    15    49    1
    54    24    50    1
    55    24    51    1
    56    24    52    1
    57    25    53    1
    58    25    54    1
    59    25    55    1
    60    26    56    1
    61    26    57    1
    62    27    58    1
    63    27    59    1
    64    29    60    1
    65    29    61    1
    66    29    62    1
    67    30    63    1
    68    30    64    1
    69    30    65    1
    70    34    66    1
    71    35    67    1
    72    68     1    1
    73    68    33    1
    74    68    18    1
    75    68    11    1
@<TRIPOS>MOLECULE
*****
 68 75 0 0 0
SMALL
GASTEIGER

@<TRIPOS>ATOM
      1 O           0.7011   -0.5707   -1.2148 O.2     1  UNL1        0.0000
      2 C          -1.7947   -0.2884   -0.7075 C.2     1  UNL1        0.0000
      3 N          -0.5811   -1.4974    2.9097 N.am    1  UNL1        0.0000
      4 C          -2.5809   -1.8211    2.7604 C.3     1  UNL1        0.0000
      5 C          -0.3658   -1.8528    2.8408 C.3     1  UNL1        0.0000
      6 C           1.9980   -2.4911    2.6725 C.3     1  UNL1        0.0000
      7 C          -1.6248   -3.5688    0.0813 C.3     1  UNL1        0.0000
      8 C          -0.3639    2.6617    0.5639 C.ar    1  UNL1        0.0000
      9 C           1.6698    0.7128    0.8387 C.ar    1  UNL1        0.0000
     10 C          -0.0736    0.1345   -4.0663 C.ar    1  UNL1        0.0000
     11 N           0.2046    2.7451   -0.6262 N.ar    1  UNL1        0.0000
     12 C           0.9528    2.3280   -2.2111 C.ar    1  UNL1        0.0000
     13 C          -1.4218    1.0774   -3.2184 C.ar    1  UNL1        0.0000
     14 C          -0.0975   -2.4476    0.0829 C.ar    1  UNL1        0.0000
     15 C          -0.1963   -2.4704    0.0689 C.ar    1  UNL1        0.0000
     16 C           0.2640   -1.2388   -2.3757 C.ar    1  UNL1        0.0000
     17 C           1.7527   -1.1962   -2.1587 C.ar    1  UNL1        0.0000
     18 N           0.6801   -0.7907    1.1131 N.ar    1  UNL1        0.0000
     19 C           0.1178   -0.8027    1.1209 C.ar    1  UNL1        0.0000
     20 C          -1.2371   -0.6165    1.7857 C.ar    1  UNL1        0.0000
     21 N          -2.4603    1.1795   -0.1691 N.ar    1  UNL1        0.0000
     22 C          -0.8839    0.2465   -1.9001 C.ar    1  UNL1        0.0000
     23 C          -0.6869   -4.0540   -1.5850 C.3     1  UNL1        0.0000
     24 C          -0.9719    1.0463    0.5303 C.3     1  UNL1        0.0000
     25 C           0.7787    0.7703   -1.8613 C.3     1  UNL1        0.0000
     26 C          -1.1555    0.3871    0.5090 C.3     1  UNL1        0.0000
     27 C          -2.9163   -0.5910    0.3960 C.3     1  UNL1        0.0000
     28 C           2.1196   -0.0693    2.3565 C.3     1  UNL1        0.0000
     29 C           1.6628    1.1913    2.4796 C.3     1  UNL1        0.0000
     30 C          -2.0147   -1.8480    0.3640 C.3     1  UNL1        0.0000
     31 C          -0.8676    0.2741   -1.9039 C.ar    1  UNL1        0.0000
     32 N          -2.5831    2.7914    0.3402 N.ar    1  UNL1        0.0000
     33 N          -0.2485    1.3431    2.5465 N.ar    1  UNL1        0.0000
     34 C           0.1834   -0.0926    1.2192 C.ar    1  UNL1        0.0000
     35 C           0.5055    1.1725   -0.2711 C.ar    1  UNL1        0.0000
     36 H          -1.4245    0.4275    3.1296 H       1  UNL1        0.0000
     37 H          -0.7377   -4.1248    1.8322 H       1  UNL1        0.0000
     38 H          -0.4335    2.2087    3.5938 H       1  UNL1        0.0000
     39 H          -0.5269   -2.2760   -2.9411 H       1  UNL1        0.0000
     40 H          -3.1830   -0.5826    1.7622 H       1  UNL1        0.0000
     41 H           2.7859   -2.3575    2.5666 H       1  UNL1        0.0000
     42 H          -3.2414   -0.6356   -1.0670 H       1  UNL1        0.0000
     43 H          -0.7084    1.5518   -4.3477 H       1  UNL1        0.0000
     44 H           2.0345    1.6408   -1.2510 H       1  UNL1        0.0000
     45 H           1.5511   -1.5269    0.2903 H       1  UNL1        0.0000
     46 H          -1.6854   -0.9032    3.4727 H       1  UNL1        0.0000
     47 H           0.7685   -2.9211   -3.3912 H       1  UNL1        0.0000
     48 H           4.1438   -1.1042   -1.8622 H       1  UNL1        0.0000
     49 H          -0.7240    1.1670    4.5314 H       1  UNL1        0.0000
     50 H          -1.2364   -2.2874    1.7023 H       1  UNL1        0.0000
     51 H          -1.0954   -1.3472   -1.8429 H       1  UNL1        0.0000
     52 H          -0.9855    3.3341   -1.1807 H       1  UNL1        0.0000
     53 H           0.4916   -3.3507   -2.1963 H       1  UNL1        0.0000
     54 H          -1.1918    2.1776   -0.6078 H       1  UNL1        0.0000
     55 H           1.4630   -1.9792   -0.9330 H       1  UNL1        0.0000
     56 H           3.1726    0.5835    0.7730 H       1  UNL1        0.0000
     57 H           0.5598   -1.7126   -3.6897 H       1  UNL1        0.0000
     58 H          -1.6715   -1.8697   -3.4149 H       1  UNL1        0.0000
     59 H           0.7491   -0.8519    2.5452 H       1  UNL1        0.0000
     60 H          -2.7244    2.3011   -1.1067 H       1  UNL1        0.0000
     61 H           0.7963    1.1918   -3.5355 H       1  UNL1        0.0000
     62 H           1.8326    1.5019   -4.4285 H       1  UNL1        0.0000
     63 H           1.0008    3.8335   -0.5191 H       1  UNL1        0.0000
     64 H           2.6355   -0.5672   -0.3160 H       1  UNL1        0.0000
     65 H          -1.9033   -3.5630    1.9206 H       1  UNL1        0.0000
     66 H          -1.6099    1.2379    1.8764 H       1  UNL1        0.0000
     67 H           2.8308    1.7554    1.4564 H       1  UNL1        0.0000
     68 EU          1.5482    1.9503    0.3314 Eu      1  UNL1        0.0000
@<TRIPOS>BOND
     1     1     2    2
     2     2     3   am
     3     3     4    1
     4     3     5    1
     5     5     6    1
     6     6     7    1
     7     2     8    1
     8     8     9   ar
     9     9    10   ar
    10     8    11   ar
    11    11    12   ar
    12    12    13   ar
    13    10    13   ar
    14    13    14   ar
    15    14    15   ar
    16    15    16   ar
    17    16    17   ar
    18    12    17   ar
    19    17    18   ar
    20    18    19   ar
    21    19    20    1
    22    20    21   ar
    23    21    22   ar
    24    22    23    1
    25    23    24    1
    26    23    25    1
    27    23    26    1
    28    26    27    1
    29    27    28    1
    30    28    29    1
    31    28    30    1
    32    22    31   ar
    33    28    31    1
    34    31    32   ar
    35    32    33   ar
    36    20    33   ar
    37    19    34   ar
    38    34    35   ar
    39    16    35   ar
    40     4    36    1
    41     4    37    1
    42     4    38    1
    43     5    39    1
    44     5    40    1
    45     6    41    1
    46     6    42    1
    47     7    43    1
    48     7    44    1
    49     7    45    1
    50     9    46    1
    51    10    47    1
    52    14    48    1
    53    15    49    1
    54    24    50    1
    55    24    51    1
    56    24    52    1
    57    25    53    1
    58    25    54    1
    59    25    55    1
    60    26    56    1
    61    26    57    1
    62    27    58    1
    63    27    59    1
    64    29    60    1
    65    29    61    1
    66    29    62    1
    67    30    63    1
    68    30    64    1
    69    30    65    1
    70    34    66    1
    71    35    67    1
    72    68     1    1
    73    68    33    1
    74    68    18    1
    75    68    11    1
@<TRIPOS>MOLECULE
*****
 68 75 0 0 0
SMALL
GASTEIGER

@<TRIPOS>ATOM
      1 O           0.7011   -0.5707   -1.2148 O.2     1  UNL1        0.0000
      2 C          -1.7947   -0.2884   -0.7075 C.2     1  UNL1        0.0000
      3 N          -0.5811   -1.4974    2.9097 N.am    1  UNL1        0.0000
      4 C          -2.5809   -1.8211    2.7604 C.3     1  UNL1        0.0000
      5 C          -0.3658   -1.8528    2.8408 C.3     1  UNL1        0.0000
      6 C           1.9980   -2.4911    2.6725 C.3     1  UNL1        0.0000
      7 C          -1.6248   -3.5688    0.0813 C.3     1  UNL1        0.0000
      8 C          -0.3639    2.6617    0.5639 C.ar    1  UNL1        0.0000
      9 C           1.6698    0.7128    0.8387 C.ar    1  UNL1        0.0000
     10 C          -0.0736    0.1345   -4.0663 C.ar    1  UNL1        0.0000
     11 N           0.2046    2.7451   -0.6262 N.ar    1  UNL1        0.0000
     12 C           0.9528    2.3280   -2.2111 C.ar    1  UNL1        0.0000
     13 C          -1.4218    1.0774   -3.2184 C.ar    1  UNL1        0.0000
     14 C          -0.0975   -2.4476    0.0829 C.ar    1  UNL1        0.0000
     15 C          -0.1963   -2.4704    0.0689 C.ar    1  UNL1        0.0000
     16 C           0.2640   -1.2388   -2.3757 C.ar    1  UNL1        0.0000
     17 C           1.7527   -1.1962   -2.1587 C.ar    1  UNL1        0.0000
     18 N           0.6801   -0.7907    1.1131 N.ar    1  UNL1        0.0000
     19 C           0.1178   -0.8027    1.1209 C.ar    1  UNL1        0.0000
     20 C          -1.2371   -0.6165    1.7857 C.ar    1  UNL1        0.0000
     21 N          -2.4603    1.1795   -0.1691 N.ar    1  UNL1        0.0000
     22 C          -0.8839    0.2465   -1.9001 C.ar    1  UNL1        0.0000
     23 C          -0.6869   -4.0540   -1.5850 C.3     1  UNL1        0.0000
     24 C          -0.9719    1.0463    0.5303 C.3     1  UNL1        0.0000
     25 C           0.7787    0.7703   -1.8613 C.3     1  UNL1        0.0000
     26 C          -1.1555    0.3871    0.5090 C.3     1  UNL1        0.0000
     27 C          -2.9163   -0.5910    0.3960 C.3     1  UNL1        0.0000
     28 C           2.1196   -0.0693    2.3565 C.3     1  UNL1        0.0000
     29 C           1.6628    1.1913    2.4796 C.3     1  UNL1        0.0000
     30 C          -2.0147   -1.8480    0.3640 C.3     1  UNL1        0.0000
     31 C          -0.8676    0.2741   -1.9039 C.ar    1  UNL1        0.0000
     32 N          -2.5831    2.7914    0.3402 N.ar    1  UNL1        0.0000
     33 N          -0.2485    1.3431    2.5465 N.ar    1  UNL1        0.0000
     34 C           0.1834   -0.0926    1.2192 C.ar    1  UNL1        0.0000
     35 C           0.5055    1.1725   -0.2711 C.ar    1  UNL1        0.0000
     36 H          -1.4245    0.4275    3.1296 H       1  UNL1        0.0000
     37 H          -0.7377   -4.1248    1.8322 H       1  UNL1        0.0000
     38 H          -0.4335    2.2087    3.5938 H       1  UNL1        0.0000
     39 H          -0.5269   -2.2760   -2.9411 H       1  UNL1        0.0000
     40 H          -3.1830   -0.5826    1.7622 H       1  UNL1        0.0000
     41 H           2.7859   -2.3575    2.5666 H       1  UNL1        0.0000
     42 H          -3.2414   -0.6356   -1.0670 H       1  UNL1        0.0000
     43 H          -0.7084    1.5518   -4.3477 H       1  UNL1        0.0000
     44 H           2.0345    1.6408   -1.2510 H       1  UNL1        0.0000
     45 H           1.5511   -1.5269    0.2903 H       1  UNL1        0.0000
     46 H          -1.6854   -0.9032    3.4727 H       1  UNL1        0.0000
     47 H           0.7685   -2.9211   -3.3912 H       1  UNL1        0.0000
     48 H           4.1438   -1.1042   -1.8622 H       1  UNL1        0.0000
     49 H          -0.7240    1.1670    4.5314 H       1  UNL1        0.0000
     50 H          -1.2364   -2.2874    1.7023 H       1  UNL1        0.0000
     51 H          -1.0954   -1.3472   -1.8429 H       1  UNL1        0.0000
     52 H          -0.9855    3.3341   -1.1807 H       1  UNL1        0.0000
     53 H           0.4916   -3.3507   -2.1963 H       1  UNL1        0.0000
     54 H          -1.1918    2.1776   -0.6078 H       1  UNL1        0.0000
     55 H           1.4630   -1.9792   -0.9330 H       1  UNL1        0.0000
     56 H           3.1726    0.5835    0.7730 H       1  UNL1        0.0000
     57 H           0.5598   -1.7126   -3.6897 H       1  UNL1        0.0000
     58 H          -1.6715   -1.8697   -3.4149 H       1  UNL1        0.0000
     59 H           0.7491   -0.8519    2.5452 H       1  UNL1        0.0000
     60 H          -2.7244    2.3011   -1.1067 H       1  UNL1        0.0000
     61 H           0.7963    1.1918   -3.5355 H       1  UNL1        0.0000
     62 H           1.8326    1.5019   -4.4285 H       1  UNL1        0.0000
     63 H           1.0008    3.8335   -0.5191 H       1  UNL1        0.0000
     64 H           2.6355   -0.5672   -0.3160 H       1  UNL1        0.0000
     65 H          -1.9033   -3.5630    1.9206 H       1  UNL1        0.0000
     66 H          -1.6099    1.2379    1.8764 H       1  UNL1        0.0000
     67 H           2.8308    1.7554    1.4564 H       1  UNL1        0.0000
     68 EU          1.5482    1.9503    0.3314 Eu      1  UNL1        0.0000
@<TRIPOS>BOND
     1     1     2    2
     2     2     3   am
     3     3     4    1
     4     3     5    1
     5     5     6    1
     6     6     7    1
     7     2     8    1
     8     8     9   ar
     9     9    10   ar
    10     8    11   ar
    11    11    12   ar
    12    12    13   ar
    13    10    13   ar
    14    13    14   ar
    15    14    15   ar
    16    15    16   ar
    17    16    17   ar
    18    12    17   ar
    19    17    18   ar
    20    18    19   ar
    21    19    20    1
    22    20    21   ar
    23    21    22   ar
    24    22    23    1
    25    23    24    1
    26    23    25    1
    27    23    26    1
    28    26    27    1
    29    27    28    1
    30    28    29    1
    31    28    30    1
    32    22    31   ar
    33    28    31    1
    34    31    32   ar
    35    32    33   ar
    36    20    33   ar
    37    19    34   ar
    38    34    35   ar
    39    16    35   ar
    40     4    36    1
    41     4    37    1
    42     4    38    1
    43     5    39    1
    44     5    40    1
    45     6    41    1
    46     6    42    1
    47     7    43    1
    48     7    44    1
    49     7    45    1
    50     9    46    1
    51    10    47    1
    52    14    48    1
    53    15    49    1
    54    24    50    1
    55    24    51    1
    56    24    52    1
    57    25    53    1
    58    25    54    1
    59    25    55    1
    60    26    56    1
    61    26    57    1
    62    27    58    1
    63    27    59    1
    64    29    60    1
    65    29    61    1
    66    29    62    1
    67    30    63    1
    68    30    64    1
    69    30    65    1
    70    34    66    1
    71    35    67    1
    72    68     1    1
    73    68    33    1
    74    68    18    1
    75    68    11    1
@<TRIPOS>MOLECULE
*****
 68 75 0 0 0
SMALL
GASTEIGER

@<TRIPOS>ATOM
      1 O           0.7011   -0.5707   -1.2148 O.2     1  UNL1        0.0000
      2 C          -1.7947   -0.2884   -0.7075 C.2     1  UNL1        0.0000
      3 N          -0.5811   -1.4974    2.9097 N.am    1  UNL1        0.0000
      4 C          -2.5809   -1.8211    2.7604 C.3     1  UNL1        0.0000
      5 C          -0.3658   -1.8528    2.8408 C.3     1  UNL1        0.0000
      6 C           1.9980   -2.4911    2.6725 C.3     1  UNL1        0.0000
      7 C          -1.6248   -3.5688    0.0813 C.3     1  UNL1        0.0000
      8 C          -0.3639    2.6617    0.5639 C.ar    1  UNL1        0.0000
      9 C           1.6698    0.7128    0.8387 C.ar    1  UNL1        0.0000
     10 C          -0.0736    0.1345   -4.0663 C.ar    1  UNL1        0.0000
     11 N           0.2046    2.7451   -0.6262 N.ar    1  UNL1        0.0000
     12 C           0.9528    2.3280   -2.2111 C.ar    1  UNL1        0.0000
     13 C          -1.4218    1.0774   -3.2184 C.ar    1  UNL1        0.0000
     14 C          -0.0975   -2.4476    0.0829 C.ar    1  UNL1        0.0000
     15 C          -0.1963   -2.4704    0.0689 C.ar    1  UNL1        0.0000
     16 C           0.2640   -1.2388   -2.3757 C.ar    1  UNL1        0.0000
     17 C           1.7527   -1.1962   -2.1587 C.ar    1  UNL1        0.0000
     18 N           0.6801   -0.7907    1.1131 N.ar    1  UNL1        0.0000
     19 C           0.1178   -0.8027    1.1209 C.ar    1  UNL1        0.0000
     20 C          -1.2371   -0.6165    1.7857 C.ar    1  UNL1        0.0000
     21 N          -2.4603    1.1795   -0.1691 N.ar    1  UNL1        0.0000
     22 C          -0.8839    0.2465   -1.9001 C.ar    1  UNL1        0.0000
     23 C          -0.6869   -4.0540   -1.5850 C.3     1  UNL1        0.0000
     24 C          -0.9719    1.0463    0.5303 C.3     1  UNL1        0.0000
     25 C           0.7787    0.7703   -1.8613 C.3     1  UNL1        0.0000
     26 C          -1.1555    0.3871    0.5090 C.3     1  UNL1        0.0000
     27 C          -2.9163   -0.5910    0.3960 C.3     1  UNL1        0.0000
     28 C           2.1196   -0.0693    2.3565 C.3     1  UNL1        0.0000
     29 C           1.6628    1.1913    2.4796 C.3     1  UNL1        0.0000
     30 C          -2.0147   -1.8480    0.3640 C.3     1  UNL1        0.0000
     31 C          -0.8676    0.2741   -1.9039 C.ar    1  UNL1        0.0000
     32 N          -2.5831    2.7914    0.3402 N.ar    1  UNL1        0.0000
     33 N          -0.2485    1.3431    2.5465 N.ar    1  UNL1        0.0000
     34 C           0.1834   -0.0926    1.2192 C.ar    1  UNL1        0.0000
     35 C           0.5055    1.1725   -0.2711 C.ar    1  UNL1        0.0000
     36 H          -1.4245    0.4275    3.1296 H       1  UNL1        0.0000
     37 H          -0.7377   -4.1248    1.8322 H       1  UNL1        0.0000
     38 H          -0.4335    2.2087    3.5938 H       1  UNL1        0.0000
     39 H          -0.5269   -2.2760   -2.9411 H       1  UNL1        0.0000
     40 H          -3.1830   -0.5826    1.7622 H       1  UNL1        0.0000
     41 H           2.7859   -2.3575    2.5666 H       1  UNL1        0.0000
     42 H          -3.2414   -0.6356   -1.0670 H       1  UNL1        0.0000
     43 H          -0.7084    1.5518   -4.3477 H       1  UNL1        0.0000
     44 H           2.0345    1.6408   -1.2510 H       1  UNL1        0.0000
     45 H           1.5511   -1.5269    0.2903 H       1  UNL1        0.0000
     46 H          -1.6854   -0.9032    3.4727 H       1  UNL1        0.0000
     47 H           0.7685   -2.9211   -3.3912 H       1  UNL1        0.0000
     48 H           4.1438   -1.1042   -1.8622 H       1  UNL1        0.0000
     49 H          -0.7240    1.1670    4.5314 H       1  UNL1        0.0000
     50 H          -1.2364   -2.2874    1.7023 H       1  UNL1        0.0000
     51 H          -1.0954   -1.3472   -1.8429 H       1  UNL1        0.0000
     52 H          -0.9855    3.3341   -1.1807 H       1  UNL1        0.0000
     53 H           0.4916   -3.3507   -2.1963 H       1  UNL1        0.0000
     54 H          -1.1918    2.1776   -0.6078 H       1  UNL1        0.0000
     55 H           1.4630   -1.9792   -0.9330 H       1  UNL1        0.0000
     56 H           3.1726    0.5835    0.7730 H       1  UNL1        0.0000
     57 H           0.5598   -1.7126   -3.6897 H       1  UNL1        0.0000
     58 H          -1.6715   -1.8697   -3.4149 H       1  UNL1        0.0000
     59 H           0.7491   -0.8519    2.5452 H       1  UNL1        0.0000
     60 H          -2.7244    2.3011   -1.1067 H       1  UNL1        0.0000
     61 H           0.7963    1.1918   -3.5355 H       1  UNL1        0.0000
     62 H           1.8326    1.5019   -4.4285 H       1  UNL1        0.0000
     63 H           1.0008    3.8335   -0.5191 H       1  UNL1        0.0000
     64 H           2.6355   -0.5672   -0.3160 H       1  UNL1        0.0000
     65 H          -1.9033   -3.5630    1.9206 H       1  UNL1        0.0000
     66 H          -1.6099    1.2379    1.8764 H       1  UNL1        0.0000
     67 H           2.8308    1.7554    1.4564 H       1  UNL1        0.0000
     68 EU          1.5482    1.9503    0.3314 Eu      1  UNL1        0.0000
@<TRIPOS>BOND
     1     1     2    2
     2     2     3   am
     3     3     4    1
     4     3     5    1
     5     5     6    1
     6     6     7    1
     7     2     8    1
     8     8     9   ar
     9     9    10   ar
    10     8    11   ar
    11    11    12   ar
    12    12    13   ar
    13    10    13   ar
    14    13    14   ar
    15    14    15   ar
    16    15    16   ar
    17    16    17   ar
    18    12    17   ar
    19    17    18   ar
    20    18    19   ar
    21    19    20    1
    22    20    21   ar
    23    21    22   ar
    24    22    23    1
    25    23    24    1
    26    23    25    1
    27    23    26    1
    28    26    27    1
    29    27    28    1
    30    28    29    1
    31    28    30    1
    32    22    31   ar
    33    28    31    1
    34    31    32   ar
    35    32    33   ar
    36    20    33   ar
    37    19    34   ar
    38    34    35   ar
    39    16    35   ar
    40     4    36    1
    41     4    37    1
    42     4    38    1
    43     5    39    1
    44     5    40    1
    45     6    41    1
    46     6    42    1
    47     7    43    1
    48     7    44    1
    49     7    45    1
    50     9    46    1
    51    10    47    1
    52    14    48    1
    53    15    49    1
    54    24    50    1
    55    24    51    1
    56    24    52    1
    57    25    53    1
    58    25    54    1
    59    25    55    1
    60    26    56    1
    61    26    57    1
    62    27    58    1
    63    27    59    1
    64    29    60    1
    65    29    61    1
    66    29    62    1
    67    30    63    1
    68    30    64    1
    69    30    65    1
    70    34    66    1
    71    35    67    1
    72    68     1    1
    73    68    33    1
    74    68    18    1
    75    68    11    1
@<TRIPOS>MOLECULE
*****
 68 75 0 0 0
SMALL
GASTEIGER

@<TRIPOS>ATOM
      1 O          -0.3282   -0.3521   -0.8723 O.2     1  UNL1        0.0000
      2 C          -0.9948    0.6080   -1.0788 C.2     1  UNL1        0.0000
      3 N          -0.8416   -1.3190    3.0857 N.am    1  UNL1        0.0000
      4 C          -2.3919   -1.4935    1.9562 C.3     1  UNL1        0.0000
      5 C           0.3954   -2.2174    3.1079 C.3     1  UNL1        0.0000
      6 C           2.9827   -2.4426    2.3907 C.3     1  UNL1        0.0000
      7 C          -1.6211   -4.1574    0.1641 C.3     1  UNL1        0.0000
      8 C          -0.4278    2.5423   -0.0142 C.ar    1  UNL1        0.0000
      9 C           1.5508    1.2128    1.1163 C.ar    1  UNL1        0.0000
     10 C          -1.0089   -0.1506   -3.7474 C.ar    1  UNL1        0.0000
     11 N          -0.2356    2.0866   -0.9896 N.ar    1  UNL1        0.0000
     12 C           1.3747    2.6326   -1.5899 C.ar    1  UNL1        0.0000
     13 C          -0.8156    0.0392   -4.0160 C.ar    1  UNL1        0.0000
     14 C          -0.4755   -2.7329   -0.0222 C.ar    1  UNL1        0.0000
     15 C          -0.6216   -3.1283    0.0958 C.ar    1  UNL1        0.0000
     16 C           0.1756   -0.7640   -2.8296 C.ar    1  UNL1        0.0000
     17 C           2.4670   -1.9958   -1.8342 C.ar    1  UNL1        0.0000
     18 N           1.0874   -0.2907    0.5699 N.ar    1  UNL1        0.0000
     19 C          -0.3636   -1.0322    0.4742 C.ar    1  UNL1        0.0000
     20 C          -1.3112   -0.8901    1.9507 C.ar    1  UNL1        0.0000
     21 N          -2.9710    1.1046   -0.6676 N.ar    1  UNL1        0.0000
     22 C          -0.8146   -0.2941   -1.6824 C.ar    1  UNL1        0.0000
     23 C          -0.7381   -4.4367   -2.0199 C.3     1  UNL1        0.0000
     24 C          -1.2188    0.6689    0.8234 C.3     1  UNL1        0.0000
     25 C           0.3706    1.3837   -2.3946 C.3     1  UNL1        0.0000
     26 C          -1.3764    0.7573    0.8969 C.3     1  UNL1        0.0000
     27 C          -2.8119   -0.2357    0.5476 C.3     1  UNL1        0.0000
     28 C           2.4945    0.5397    1.8635 C.3     1  UNL1        0.0000
     29 C           1.3281    1.0367    2.3561 C.3     1  UNL1        0.0000
     30 C          -3.0189   -2.5080    1.0488 C.3     1  UNL1        0.0000
     31 C          -1.1524    0.7168   -2.0130 C.ar    1  UNL1        0.0000
     32 N          -2.5907    3.4188    0.0148 N.ar    1  UNL1        0.0000
     33 N           0.2297    1.5571    2.8190 N.ar    1  UNL1        0.0000
     34 C          -0.8470    0.0539    0.8385 C.ar    1  UNL1        0.0000
     35 C           0.6534    2.1054    0.2289 C.ar    1  UNL1        0.0000
     36 H          -1.8486    0.3885    2.3726 H       1  UNL1        0.0000
     37 H          -1.0394   -4.2778    2.7170 H       1  UNL1        0.0000
     38 H          -0.0408    1.3393    3.0788 H       1  UNL1        0.0000
     39 H           0.0767   -2.9593   -2.0940 H       1  UNL1        0.0000
     40 H          -2.3390   -0.4736    2.7283 H       1  UNL1        0.0000
     41 H           3.5911   -1.5274    2.7001 H       1  UNL1        0.0000
     42 H          -2.8737   -1.0023   -1.6725 H       1  UNL1        0.0000
     43 H          -0.4063    1.5328   -4.4502 H       1  UNL1        0.0000
     44 H           2.3804    1.1336   -0.9169 H       1  UNL1        0.0000
     45 H           1.2214   -1.2336    0.5262 H       1  UNL1        0.0000
     46 H          -0.7844   -0.4943    3.2450 H       1  UNL1        0.0000
     47 H           0.3262   -3.1780   -2.8992 H       1  UNL1        0.0000
     48 H           3.6902   -1.3330   -2.3063 H       1  UNL1        0.0000
     49 H          -0.1784    1.2061    4.8994 H       1  UNL1        0.0000
     50 H          -1.0330   -3.0038    1.2302 H       1  UNL1        0.0000
     51 H          -1.1446   -1.8832   -1.7476 H       1  UNL1        0.0000
     52 H          -0.5323    3.0153   -1.0417 H       1  UNL1        0.0000
     53 H           1.4204   -3.4679   -2.5755 H       1  UNL1        0.0000
     54 H          -1.0885    2.2486   -1.2089 H       1  UNL1        0.0000
     55 H           0.8521   -1.8640   -0.4543 H       1  UNL1        0.0000
     56 H           2.9468    0.3068    0.0045 H       1  UNL1        0.0000
     57 H           1.3290   -2.7461   -3.5997 H       1  UNL1        0.0000
     58 H          -1.3471   -1.8112   -3.8305 H       1  UNL1        0.0000
     59 H           0.9080   -0.3799    2.6509 H       1  UNL1        0.0000
     60 H          -2.8842    2.1296   -0.5340 H       1  UNL1        0.0000
     61 H           1.1698    0.1651   -3.9032 H       1  UNL1        0.0000
     62 H           2.0294    1.8677   -5.0516 H       1  UNL1        0.0000
     63 H           0.9332    3.7283   -0.2481 H       1  UNL1        0.0000
     64 H           2.8760   -0.4780   -0.5264 H       1  UNL1        0.0000
     65 H          -2.1636   -2.9677    1.3376 H       1  UNL1        0.0000
     66 H          -2.1883    1.5583    1.7060 H       1  UNL1        0.0000
     67 H           2.8181    1.9134    1.6214 H       1  UNL1        0.0000
     68 EU          1.3869    1.3447    0.2711 Eu      1  UNL1        0.0000
@<TRIPOS>BOND
     1     1     2    2
     2     2     3   am
     3     3     4    1
     4     3     5    1
     5     5     6    1
     6     6     7    1
     7     2     8    1
     8     8     9   ar
     9     9    10   ar
    10     8    11   ar
    11    11    12   ar
    12    12    13   ar
    13    10    13   ar
    14    13    14   ar
    15    14    15   ar
    16    15    16   ar
    17    16    17   ar
    18    12    17   ar
    19    17    18   ar
    20    18    19   ar
    21    19    20    1
    22    20    21   ar
    23    21    22   ar
    24    22    23    1
    25    23    24    1
    26    23    25    1
    27    23    26    1
    28    26    27    1
    29    27    28    1
    30    28    29    1
    31    28    30    1
    32    22    31   ar
    33    28    31    1
    34    31    32   ar
    35    32    33   ar
    36    20    33   ar
    37    19    34   ar
    38    34    35   ar
    39    16    35   ar
    40     4    36    1
    41     4    37    1
    42     4    38    1
    43     5    39    1
    44     5    40    1
    45     6    41    1
    46     6    42    1
    47     7    43    1
    48     7    44    1
    49     7    45    1
    50     9    46    1
    51    10    47    1
    52    14    48    1
    53    15    49    1
    54    24    50    1
    55    24    51    1
    56    24    52    1
    57    25    53    1
    58    25    54    1
    59    25    55    1
    60    26    56    1
    61    26    57    1
    62    27    58    1
    63    27    59    1
    64    29    60    1
    65    29    61    1
    66    29    62    1
    67    30    63    1
    68    30    64    1
    69    30    65    1
    70    34    66    1
    71    35    67    1
    72    68     1    1
    73    68    33    1
    74    68    18    1
    75    68    11    1
@<TRIPOS>MOLECULE
*****
 68 75 0 0 0
SMALL
GASTEIGER

@<TRIPOS>ATOM
      1 O          -0.1090   -0.2511   -0.9828 O.2     1  UNL1        0.0000
      2 C          -1.2911    0.6084   -0.6205 C.2     1  UNL1        0.0000
      3 N          -0.8914   -1.5429    3.0212 N.am    1  UNL1        0.0000
      4 C          -2.6559   -1.7983    2.3690 C.3     1  UNL1        0.0000
      5 C           0.3920   -2.2179    3.0938 C.3     1  UNL1        0.0000
      6 C           2.9503   -2.4427    2.3744 C.3     1  UNL1        0.0000
      7 C          -1.6296   -4.1825    0.1566 C.3     1  UNL1        0.0000
      8 C          -0.5263    2.5490    0.5935 C.ar    1  UNL1        0.0000
      9 C           1.2715    0.9230    0.9993 C.ar    1  UNL1        0.0000
     10 C          -0.4821   -0.4134   -4.2782 C.ar    1  UNL1        0.0000
     11 N           0.6120    2.7601   -1.1228 N.ar    1  UNL1        0.0000
     12 C           1.6025    2.3406   -2.2673 C.ar    1  UNL1        0.0000
     13 C          -1.5895    0.2954   -3.7256 C.ar    1  UNL1        0.0000
     14 C          -0.2348   -2.7993   -0.0428 C.ar    1  UNL1        0.0000
     15 C          -0.3998   -2.8215   -0.0544 C.ar    1  UNL1        0.0000
     16 C           0.2600   -1.2412   -2.6278 C.ar    1  UNL1        0.0000
     17 C           2.4853   -1.1469   -1.9082 C.ar    1  UNL1        0.0000
     18 N           1.2644   -0.6483    0.5726 N.ar    1  UNL1        0.0000
     19 C          -0.3842   -0.8906    0.9274 C.ar    1  UNL1        0.0000
     20 C          -1.2597   -0.8496    1.6540 C.ar    1  UNL1        0.0000
     21 N          -2.9592    0.8085   -0.5768 N.ar    1  UNL1        0.0000
     22 C          -1.3068   -0.2205   -2.0699 C.ar    1  UNL1        0.0000
     23 C          -0.7449   -4.3910   -2.0058 C.3     1  UNL1        0.0000
     24 C          -1.4959    1.0554    0.9086 C.3     1  UNL1        0.0000
     25 C           0.4138    1.3147   -2.4574 C.3     1  UNL1        0.0000
     26 C          -1.5707    0.9586    0.9163 C.3     1  UNL1        0.0000
     27 C          -2.7983   -0.3055    0.5956 C.3     1  UNL1        0.0000
     28 C           2.5852    0.4527    1.9451 C.3     1  UNL1        0.0000
     29 C           1.5550    0.9419    2.5603 C.3     1  UNL1        0.0000
     30 C          -3.0295   -2.5742    0.9057 C.3     1  UNL1        0.0000
     31 C          -1.0361    0.6853   -2.2239 C.ar    1  UNL1        0.0000
     32 N          -2.5345    3.4347    0.0917 N.ar    1  UNL1        0.0000
     33 N           0.1987    1.9860    2.4440 N.ar    1  UNL1        0.0000
     34 C          -0.3294   -0.1399    1.1279 C.ar    1  UNL1        0.0000
     35 C           0.2126    1.4520   -0.2190 C.ar    1  UNL1        0.0000
     36 H          -1.7974    0.4849    2.3694 H       1  UNL1        0.0000
     37 H          -1.0429   -4.2726    2.7161 H       1  UNL1        0.0000
     38 H          -0.3349    1.0770    3.3791 H       1  UNL1        0.0000
     39 H           0.0396   -2.9109   -1.9324 H       1  UNL1        0.0000
     40 H          -2.3922   -0.4717    2.8397 H       1  UNL1        0.0000
     41 H           3.5908   -1.5275    2.7001 H       1  UNL1        0.0000
     42 H          -2.8596   -1.0077   -1.6607 H       1  UNL1        0.0000
     43 H          -0.4087    1.5191   -4.4383 H       1  UNL1        0.0000
     44 H           2.4648    1.0972   -1.0117 H       1  UNL1        0.0000
     45 H           1.4036   -1.9517    0.5166 H       1  UNL1        0.0000
     46 H          -0.7362   -0.1937    3.3233 H       1  UNL1        0.0000
     47 H           0.2658   -3.2861   -3.1803 H       1  UNL1        0.0000
     48 H           3.9359   -1.5285   -2.1033 H       1  UNL1        0.0000
     49 H          -0.2358    1.1818    4.9022 H       1  UNL1        0.0000
     50 H          -0.9853   -3.0079    1.3373 H       1  UNL1        0.0000
     51 H          -1.1485   -1.8850   -1.7395 H       1  UNL1        0.0000
     52 H          -0.7079    3.3100   -1.0416 H       1  UNL1        0.0000
     53 H           1.4557   -3.4797   -2.5374 H       1  UNL1        0.0000
     54 H          -1.1588    2.1479   -1.2383 H       1  UNL1        0.0000
     55 H           0.8340   -1.8349   -0.6010 H       1  UNL1        0.0000
     56 H           2.9566    0.4352    0.1061 H       1  UNL1        0.0000
     57 H           1.3504   -2.7038   -3.6265 H       1  UNL1        0.0000
     58 H          -1.3558   -1.8154   -3.8172 H       1  UNL1        0.0000
     59 H           0.8827   -0.4183    2.6529 H       1  UNL1        0.0000
     60 H          -2.8752    2.2195   -0.5457 H       1  UNL1        0.0000
     61 H           1.1754    0.1692   -3.8860 H       1  UNL1        0.0000
     62 H           2.0279    1.8651   -5.0300 H       1  UNL1        0.0000
     63 H           0.9373    3.7506   -0.2109 H       1  UNL1        0.0000
     64 H           2.8579   -0.6021   -0.5801 H       1  UNL1        0.0000
     65 H          -2.2430   -2.9765    1.3350 H       1  UNL1        0.0000
     66 H          -2.3533    1.6610    1.8925 H       1  UNL1        0.0000
     67 H           2.8240    1.9582    1.6077 H       1  UNL1        0.0000
     68 EU          1.6381    1.4779   -0.1877 Eu      1  UNL1        0.0000
@<TRIPOS>BOND
     1     1     2    2
     2     2     3   am
     3     3     4    1
     4     3     5    1
     5     5     6    1
     6     6     7    1
     7     2     8    1
     8     8     9   ar
     9     9    10   ar
    10     8    11   ar
    11    11    12   ar
    12    12    13   ar
    13    10    13   ar
    14    13    14   ar
    15    14    15   ar
    16    15    16   ar
    17    16    17   ar
    18    12    17   ar
    19    17    18   ar
    20    18    19   ar
    21    19    20    1
    22    20    21   ar
    23    21    22   ar
    24    22    23    1
    25    23    24    1
    26    23    25    1
    27    23    26    1
    28    26    27    1
    29    27    28    1
    30    28    29    1
    31    28    30    1
    32    22    31   ar
    33    28    31    1
    34    31    32   ar
    35    32    33   ar
    36    20    33   ar
    37    19    34   ar
    38    34    35   ar
    39    16    35   ar
    40     4    36    1
    41     4    37    1
    42     4    38    1
    43     5    39    1
    44     5    40    1
    45     6    41    1
    46     6    42    1
    47     7    43    1
    48     7    44    1
    49     7    45    1
    50     9    46    1
    51    10    47    1
    52    14    48    1
    53    15    49    1
    54    24    50    1
    55    24    51    1
    56    24    52    1
    57    25    53    1
    58    25    54    1
    59    25    55    1
    60    26    56    1
    61    26    57    1
    62    27    58    1
    63    27    59    1
    64    29    60    1
    65    29    61    1
    66    29    62    1
    67    30    63    1
    68    30    64    1
    69    30    65    1
    70    34    66    1
    71    35    67    1
    72    68     1    1
    73    68    33    1
    74    68    18    1
    75    68    11    1
@<TRIPOS>MOLECULE
*****
 68 75 0 0 0
SMALL
GASTEIGER

@<TRIPOS>ATOM
      1 O          -0.1062   -0.2448   -0.9898 O.2     1  UNL1        0.0000
      2 C          -1.3000    0.6047   -0.6210 C.2     1  UNL1        0.0000
      3 N          -0.8944   -1.5479    3.0218 N.am    1  UNL1        0.0000
      4 C          -2.6583   -1.8063    2.3813 C.3     1  UNL1        0.0000
      5 C           0.3917   -2.2180    3.0925 C.3     1  UNL1        0.0000
      6 C           2.9471   -2.4427    2.3728 C.3     1  UNL1        0.0000
      7 C          -1.6283   -4.1814    0.1554 C.3     1  UNL1        0.0000
      8 C          -0.5151    2.5500    0.5986 C.ar    1  UNL1        0.0000
      9 C           1.2638    0.9287    1.0014 C.ar    1  UNL1        0.0000
     10 C          -0.4858   -0.4084   -4.2822 C.ar    1  UNL1        0.0000
     11 N           0.6191    2.7625   -1.1197 N.ar    1  UNL1        0.0000
     12 C           1.6021    2.3394   -2.2774 C.ar    1  UNL1        0.0000
     13 C          -1.5874    0.2972   -3.7358 C.ar    1  UNL1        0.0000
     14 C          -0.2515   -2.8032   -0.0425 C.ar    1  UNL1        0.0000
     15 C          -0.3672   -2.8176   -0.0488 C.ar    1  UNL1        0.0000
     16 C           0.2521   -1.2476   -2.6119 C.ar    1  UNL1        0.0000
     17 C           2.4874   -1.1386   -1.9102 C.ar    1  UNL1        0.0000
     18 N           1.2788   -0.6504    0.5632 N.ar    1  UNL1        0.0000
     19 C          -0.3817   -0.8874    0.9320 C.ar    1  UNL1        0.0000
     20 C          -1.2555   -0.8435    1.6485 C.ar    1  UNL1        0.0000
     21 N          -2.9614    0.8025   -0.5804 N.ar    1  UNL1        0.0000
     22 C          -1.3165   -0.2197   -2.0771 C.ar    1  UNL1        0.0000
     23 C          -0.7456   -4.3865   -2.0044 C.3     1  UNL1        0.0000
     24 C          -1.4990    1.0589    0.9140 C.3     1  UNL1        0.0000
     25 C           0.4144    1.3058   -2.4615 C.3     1  UNL1        0.0000
     26 C          -1.5741    0.9621    0.9201 C.3     1  UNL1        0.0000
     27 C          -2.7971   -0.3113    0.5997 C.3     1  UNL1        0.0000
     28 C           2.5882    0.4454    1.9468 C.3     1  UNL1        0.0000
     29 C           1.5610    0.9434    2.5718 C.3     1  UNL1        0.0000
     30 C          -3.0268   -2.5740    0.8994 C.3     1  UNL1        0.0000
     31 C          -1.0424    0.6849   -2.2257 C.ar    1  UNL1        0.0000
     32 N          -2.5300    3.4359    0.0935 N.ar    1  UNL1        0.0000
     33 N           0.1885    1.9919    2.4378 N.ar    1  UNL1        0.0000
     34 C          -0.3257   -0.1437    1.1279 C.ar    1  UNL1        0.0000
     35 C           0.2018    1.4350   -0.2387 C.ar    1  UNL1        0.0000
     36 H          -1.7953    0.4885    2.3721 H       1  UNL1        0.0000
     37 H          -1.0433   -4.2721    2.7160 H       1  UNL1        0.0000
     38 H          -0.3369    1.0750    3.3821 H       1  UNL1        0.0000
     39 H           0.0398   -2.9097   -1.9291 H       1  UNL1        0.0000
     40 H          -2.3941   -0.4704    2.8452 H       1  UNL1        0.0000
     41 H           3.5908   -1.5275    2.7001 H       1  UNL1        0.0000
     42 H          -2.8583   -1.0083   -1.6595 H       1  UNL1        0.0000
     43 H          -0.4089    1.5178   -4.4371 H       1  UNL1        0.0000
     44 H           2.4687    1.0937   -1.0177 H       1  UNL1        0.0000
     45 H           1.4064   -1.9657    0.5199 H       1  UNL1        0.0000
     46 H          -0.7345   -0.1905    3.3247 H       1  UNL1        0.0000
     47 H           0.2608   -3.2897   -3.1886 H       1  UNL1        0.0000
     48 H           3.9461   -1.5390   -2.0926 H       1  UNL1        0.0000
     49 H          -0.2379    1.1806    4.9013 H       1  UNL1        0.0000
     50 H          -0.9830   -3.0075    1.3421 H       1  UNL1        0.0000
     51 H          -1.1491   -1.8850   -1.7386 H       1  UNL1        0.0000
     52 H          -0.7105    3.3152   -1.0406 H       1  UNL1        0.0000
     53 H           1.4570   -3.4798   -2.5352 H       1  UNL1        0.0000
     54 H          -1.1603    2.1452   -1.2396 H       1  UNL1        0.0000
     55 H           0.8345   -1.8319   -0.6067 H       1  UNL1        0.0000
     56 H           2.9565    0.4388    0.1098 H       1  UNL1        0.0000
     57 H           1.3516   -2.7006   -3.6278 H       1  UNL1        0.0000
     58 H          -1.3565   -1.8156   -3.8159 H       1  UNL1        0.0000
     59 H           0.8805   -0.4211    2.6527 H       1  UNL1        0.0000
     60 H          -2.8750    2.2198   -0.5470 H       1  UNL1        0.0000
     61 H           1.1759    0.1695   -3.8842 H       1  UNL1        0.0000
     62 H           2.0278    1.8648   -5.0279 H       1  UNL1        0.0000
     63 H           0.9378    3.7537   -0.2062 H       1  UNL1        0.0000
     64 H           2.8571   -0.6051   -0.5783 H       1  UNL1        0.0000
     65 H          -2.2472   -2.9772    1.3344 H       1  UNL1        0.0000
     66 H          -2.3619    1.6664    1.9028 H       1  UNL1        0.0000
     67 H           2.8240    1.9608    1.6064 H       1  UNL1        0.0000
     68 EU          1.6461    1.4919   -0.1878 Eu      1  UNL1        0.0000
@<TRIPOS>BOND
     1     1     2    2
     2     2     3   am
     3     3     4    1
     4     3     5    1
     5     5     6    1
     6     6     7    1
     7     2     8    1
     8     8     9   ar
     9     9    10   ar
    10     8    11   ar
    11    11    12   ar
    12    12    13   ar
    13    10    13   ar
    14    13    14   ar
    15    14    15   ar
    16    15    16   ar
    17    16    17   ar
    18    12    17   ar
    19    17    18   ar
    20    18    19   ar
    21    19    20    1
    22    20    21   ar
    23    21    22   ar
    24    22    23    1
    25    23    24    1
    26    23    25    1
    27    23    26    1
    28    26    27    1
    29    27    28    1
    30    28    29    1
    31    28    30    1
    32    22    31   ar
    33    28    31    1
    34    31    32   ar
    35    32    33   ar
    36    20    33   ar
    37    19    34   ar
    38    34    35   ar
    39    16    35   ar
    40     4    36    1
    41     4    37    1
    42     4    38    1
    43     5    39    1
    44     5    40    1
    45     6    41    1
    46     6    42    1
    47     7    43    1
    48     7    44    1
    49     7    45    1
    50     9    46    1
    51    10    47    1
    52    14    48    1
    53    15    49    1
    54    24    50    1
    55    24    51    1
    56    24    52    1
    57    25    53    1
    58    25    54    1
    59    25    55    1
    60    26    56    1
    61    26    57    1
    62    27    58    1
    63    27    59    1
    64    29    60    1
    65    29    61    1
    66    29    62    1
    67    30    63    1
    68    30    64    1
    69    30    65    1
    70    34    66    1
    71    35    67    1
    72    68     1    1
    73    68    33    1
    74    68    18    1
    75    68    11    1
@<TRIPOS>MOLECULE
*****
 68 75 0 0 0
SMALL
GASTEIGER

@<TRIPOS>ATOM
      1 O          -0.1057   -0.2436   -0.9910 O.2     1  UNL1        0.0000
      2 C          -1.3016    0.6040   -0.6211 C.2     1  UNL1        0.0000
      3 N          -0.8949   -1.5488    3.0219 N.am    1  UNL1        0.0000
      4 C          -2.6587   -1.8076    2.3835 C.3     1  UNL1        0.0000
      5 C           0.3916   -2.2180    3.0922 C.3     1  UNL1        0.0000
      6 C           2.9465   -2.4427    2.3725 C.3     1  UNL1        0.0000
      7 C          -1.6280   -4.1811    0.1552 C.3     1  UNL1        0.0000
      8 C          -0.5131    2.5502    0.5994 C.ar    1  UNL1        0.0000
      9 C           1.2625    0.9297    1.0017 C.ar    1  UNL1        0.0000
     10 C          -0.4866   -0.4077   -4.2830 C.ar    1  UNL1        0.0000
     11 N           0.6203    2.7628   -1.1190 N.ar    1  UNL1        0.0000
     12 C           1.6019    2.3392   -2.2791 C.ar    1  UNL1        0.0000
     13 C          -1.5868    0.2976   -3.7378 C.ar    1  UNL1        0.0000
     14 C          -0.2617   -2.8028   -0.0414 C.ar    1  UNL1        0.0000
     15 C          -0.3568   -2.8161   -0.0465 C.ar    1  UNL1        0.0000
     16 C           0.2515   -1.2486   -2.6092 C.ar    1  UNL1        0.0000
     17 C           2.4878   -1.1371   -1.9106 C.ar    1  UNL1        0.0000
     18 N           1.2815   -0.6508    0.5617 N.ar    1  UNL1        0.0000
     19 C          -0.3813   -0.8868    0.9328 C.ar    1  UNL1        0.0000
     20 C          -1.2547   -0.8424    1.6475 C.ar    1  UNL1        0.0000
     21 N          -2.9618    0.8015   -0.5810 N.ar    1  UNL1        0.0000
     22 C          -1.3182   -0.2196   -2.0784 C.ar    1  UNL1        0.0000
     23 C          -0.7458   -4.3857   -2.0042 C.3     1  UNL1        0.0000
     24 C          -1.4996    1.0596    0.9150 C.3     1  UNL1        0.0000
     25 C           0.4145    1.3041   -2.4622 C.3     1  UNL1        0.0000
     26 C          -1.5747    0.9627    0.9208 C.3     1  UNL1        0.0000
     27 C          -2.7969   -0.3124    0.6005 C.3     1  UNL1        0.0000
     28 C           2.5887    0.4440    1.9470 C.3     1  UNL1        0.0000
     29 C           1.5620    0.9436    2.5737 C.3     1  UNL1        0.0000
     30 C          -3.0263   -2.5739    0.8983 C.3     1  UNL1        0.0000
     31 C          -1.0435    0.6849   -2.2260 C.ar    1  UNL1        0.0000
     32 N          -2.5293    3.4361    0.0938 N.ar    1  UNL1        0.0000
     33 N           0.1866    1.9930    2.4367 N.ar    1  UNL1        0.0000
     34 C          -0.3251   -0.1444    1.1279 C.ar    1  UNL1        0.0000
     35 C           0.2000    1.4321   -0.2421 C.ar    1  UNL1        0.0000
     36 H          -1.7950    0.4892    2.3726 H       1  UNL1        0.0000
     37 H          -1.0433   -4.2720    2.7160 H       1  UNL1        0.0000
     38 H          -0.3372    1.0746    3.3826 H       1  UNL1        0.0000
     39 H           0.0399   -2.9094   -1.9285 H       1  UNL1        0.0000
     40 H          -2.3944   -0.4702    2.8462 H       1  UNL1        0.0000
     41 H           3.5908   -1.5275    2.7001 H       1  UNL1        0.0000
     42 H          -2.8581   -1.0084   -1.6592 H       1  UNL1        0.0000
     43 H          -0.4089    1.5176   -4.4369 H       1  UNL1        0.0000
     44 H           2.4694    1.0931   -1.0188 H       1  UNL1        0.0000
     45 H           1.4069   -1.9681    0.5204 H       1  UNL1        0.0000
     46 H          -0.7342   -0.1899    3.3250 H       1  UNL1        0.0000
     47 H           0.2599   -3.2903   -3.1900 H       1  UNL1        0.0000
     48 H           3.9479   -1.5409   -2.0906 H       1  UNL1        0.0000
     49 H          -0.2383    1.1804    4.9011 H       1  UNL1        0.0000
     50 H          -0.9826   -3.0074    1.3430 H       1  UNL1        0.0000
     51 H          -1.1492   -1.8850   -1.7384 H       1  UNL1        0.0000
     52 H          -0.7110    3.3161   -1.0404 H       1  UNL1        0.0000
     53 H           1.4572   -3.4798   -2.5348 H       1  UNL1        0.0000
     54 H          -1.1606    2.1448   -1.2398 H       1  UNL1        0.0000
     55 H           0.8346   -1.8314   -0.6077 H       1  UNL1        0.0000
     56 H           2.9565    0.4394    0.1104 H       1  UNL1        0.0000
     57 H           1.3519   -2.7000   -3.6280 H       1  UNL1        0.0000
     58 H          -1.3567   -1.8157   -3.8157 H       1  UNL1        0.0000
     59 H           0.8801   -0.4216    2.6526 H       1  UNL1        0.0000
     60 H          -2.8749    2.2199   -0.5473 H       1  UNL1        0.0000
     61 H           1.1760    0.1696   -3.8839 H       1  UNL1        0.0000
     62 H           2.0278    1.8648   -5.0274 H       1  UNL1        0.0000
     63 H           0.9379    3.7542   -0.2053 H       1  UNL1        0.0000
     64 H           2.8570   -0.6056   -0.5779 H       1  UNL1        0.0000
     65 H          -2.2479   -2.9774    1.3343 H       1  UNL1        0.0000
     66 H          -2.3634    1.6673    1.9046 H       1  UNL1        0.0000
     67 H           2.8240    1.9612    1.6062 H       1  UNL1        0.0000
     68 EU          1.6475    1.4943   -0.1879 Eu      1  UNL1        0.0000
@<TRIPOS>BOND
     1     1     2    2
     2     2     3   am
     3     3     4    1
     4     3     5    1
     5     5     6    1
     6     6     7    1
     7     2     8    1
     8     8     9   ar
     9     9    10   ar
    10     8    11   ar
    11    11    12   ar
    12    12    13   ar
    13    10    13   ar
    14    13    14   ar
    15    14    15   ar
    16    15    16   ar
    17    16    17   ar
    18    12    17   ar
    19    17    18   ar
    20    18    19   ar
    21    19    20    1
    22    20    21   ar
    23    21    22   ar
    24    22    23    1
    25    23    24    1
    26    23    25    1
    27    23    26    1
    28    26    27    1
    29    27    28    1
    30    28    29    1
    31    28    30    1
    32    22    31   ar
    33    28    31    1
    34    31    32   ar
    35    32    33   ar
    36    20    33   ar
    37    19    34   ar
    38    34    35   ar
    39    16    35   ar
    40     4    36    1
    41     4    37    1
    42     4    38    1
    43     5    39    1
    44     5    40    1
    45     6    41    1
    46     6    42    1
    47     7    43    1
    48     7    44    1
    49     7    45    1
    50     9    46    1
    51    10    47    1
    52    14    48    1
    53    15    49    1
    54    24    50    1
    55    24    51    1
    56    24    52    1
    57    25    53    1
    58    25    54    1
    59    25    55    1
    60    26    56    1
    61    26    57    1
    62    27    58    1
    63    27    59    1
    64    29    60    1
    65    29    61    1
    66    29    62    1
    67    30    63    1
    68    30    64    1
    69    30    65    1
    70    34    66    1
    71    35    67    1
    72    68     1    1
    73    68    33    1
    74    68    18    1
    75    68    11    1
@<TRIPOS>MOLECULE
*****
 68 75 0 0 0
SMALL
GASTEIGER

@<TRIPOS>ATOM
      1 O          -0.1057   -0.2436   -0.9910 O.2     1  UNL1        0.0000
      2 C          -1.3016    0.6040   -0.6211 C.2     1  UNL1        0.0000
      3 N          -0.8949   -1.5488    3.0219 N.am    1  UNL1        0.0000
      4 C          -2.6587   -1.8076    2.3835 C.3     1  UNL1        0.0000
      5 C           0.3916   -2.2180    3.0922 C.3     1  UNL1        0.0000
      6 C           2.9465   -2.4427    2.3725 C.3     1  UNL1        0.0000
      7 C          -1.6280   -4.1811    0.1552 C.3     1  UNL1        0.0000
      8 C          -0.5131    2.5502    0.5994 C.ar    1  UNL1        0.0000
      9 C           1.2625    0.9297    1.0017 C.ar    1  UNL1        0.0000
     10 C          -0.4866   -0.4077   -4.2830 C.ar    1  UNL1        0.0000
     11 N           0.6203    2.7628   -1.1190 N.ar    1  UNL1        0.0000
     12 C           1.6019    2.3392   -2.2791 C.ar    1  UNL1        0.0000
     13 C          -1.5868    0.2976   -3.7378 C.ar    1  UNL1        0.0000
     14 C          -0.2617   -2.8028   -0.0414 C.ar    1  UNL1        0.0000
     15 C          -0.3568   -2.8161   -0.0465 C.ar    1  UNL1        0.0000
     16 C           0.2515   -1.2486   -2.6092 C.ar    1  UNL1        0.0000
     17 C           2.4878   -1.1371   -1.9106 C.ar    1  UNL1        0.0000
     18 N           1.2815   -0.6508    0.5617 N.ar    1  UNL1        0.0000
     19 C          -0.3813   -0.8868    0.9328 C.ar    1  UNL1        0.0000
     20 C          -1.2547   -0.8424    1.6475 C.ar    1  UNL1        0.0000
     21 N          -2.9618    0.8015   -0.5810 N.ar    1  UNL1        0.0000
     22 C          -1.3182   -0.2196   -2.0784 C.ar    1  UNL1        0.0000
     23 C          -0.7458   -4.3857   -2.0042 C.3     1  UNL1        0.0000
     24 C          -1.4996    1.0596    0.9150 C.3     1  UNL1        0.0000
     25 C           0.4145    1.3041   -2.4622 C.3     1  UNL1        0.0000
     26 C          -1.5747    0.9627    0.9208 C.3     1  UNL1        0.0000
     27 C          -2.7969   -0.3124    0.6005 C.3     1  UNL1        0.0000
     28 C           2.5887    0.4440    1.9470 C.3     1  UNL1        0.0000
     29 C           1.5620    0.9436    2.5737 C.3     1  UNL1        0.0000
     30 C          -3.0263   -2.5739    0.8983 C.3     1  UNL1        0.0000
     31 C          -1.0435    0.6849   -2.2260 C.ar    1  UNL1        0.0000
     32 N          -2.5293    3.4361    0.0938 N.ar    1  UNL1        0.0000
     33 N           0.1866    1.9930    2.4367 N.ar    1  UNL1        0.0000
     34 C          -0.3251   -0.1444    1.1279 C.ar    1  UNL1        0.0000
     35 C           0.2000    1.4321   -0.2421 C.ar    1  UNL1        0.0000
     36 H          -1.7950    0.4892    2.3726 H       1  UNL1        0.0000
     37 H          -1.0433   -4.2720    2.7160 H       1  UNL1        0.0000
     38 H          -0.3372    1.0746    3.3826 H       1  UNL1        0.0000
     39 H           0.0399   -2.9094   -1.9285 H       1  UNL1        0.0000
     40 H          -2.3944   -0.4702    2.8462 H       1  UNL1        0.0000
     41 H           3.5908   -1.5275    2.7001 H       1  UNL1        0.0000
     42 H          -2.8581   -1.0084   -1.6592 H       1  UNL1        0.0000
     43 H          -0.4089    1.5176   -4.4369 H       1  UNL1        0.0000
     44 H           2.4694    1.0931   -1.0188 H       1  UNL1        0.0000
     45 H           1.4069   -1.9681    0.5204 H       1  UNL1        0.0000
     46 H          -0.7342   -0.1899    3.3250 H       1  UNL1        0.0000
     47 H           0.2599   -3.2903   -3.1900 H       1  UNL1        0.0000
     48 H           3.9479   -1.5409   -2.0906 H       1  UNL1        0.0000
     49 H          -0.2383    1.1804    4.9011 H       1  UNL1        0.0000
     50 H          -0.9826   -3.0074    1.3430 H       1  UNL1        0.0000
     51 H          -1.1492   -1.8850   -1.7384 H       1  UNL1        0.0000
     52 H          -0.7110    3.3161   -1.0404 H       1  UNL1        0.0000
     53 H           1.4572   -3.4798   -2.5348 H       1  UNL1        0.0000
     54 H          -1.1606    2.1448   -1.2398 H       1  UNL1        0.0000
     55 H           0.8346   -1.8314   -0.6077 H       1  UNL1        0.0000
     56 H           2.9565    0.4394    0.1104 H       1  UNL1        0.0000
     57 H           1.3519   -2.7000   -3.6280 H       1  UNL1        0.0000
     58 H          -1.3567   -1.8157   -3.8157 H       1  UNL1        0.0000
     59 H           0.8801   -0.4216    2.6526 H       1  UNL1        0.0000
     60 H          -2.8749    2.2199   -0.5473 H       1  UNL1        0.0000
     61 H           1.1760    0.1696   -3.8839 H       1  UNL1        0.0000
     62 H           2.0278    1.8648   -5.0274 H       1  UNL1        0.0000
     63 H           0.9379    3.7542   -0.2053 H       1  UNL1        0.0000
     64 H           2.8570   -0.6056   -0.5779 H       1  UNL1        0.0000
     65 H          -2.2479   -2.9774    1.3343 H       1  UNL1        0.0000
     66 H          -2.3634    1.6673    1.9046 H       1  UNL1        0.0000
     67 H           2.8240    1.9612    1.6062 H       1  UNL1        0.0000
     68 EU          1.6475    1.4943   -0.1879 Eu      1  UNL1        0.0000
@<TRIPOS>BOND
     1     1     2    2
     2     2     3   am
     3     3     4    1
     4     3     5    1
     5     5     6    1
     6     6     7    1
     7     2     8    1
     8     8     9   ar
     9     9    10   ar
    10     8    11   ar
    11    11    12   ar
    12    12    13   ar
    13    10    13   ar
    14    13    14   ar
    15    14    15   ar
    16    15    16   ar
    17    16    17   ar
    18    12    17   ar
    19    17    18   ar
    20    18    19   ar
    21    19    20    1
    22    20    21   ar
    23    21    22   ar
    24    22    23    1
    25    23    24    1
    26    23    25    1
    27    23    26    1
    28    26    27    1
    29    27    28    1
    30    28    29    1
    31    28    30    1
    32    22    31   ar
    33    28    31    1
    34    31    32   ar
    35    32    33   ar
    36    20    33   ar
    37    19    34   ar
    38    34    35   ar
    39    16    35   ar
    40     4    36    1
    41     4    37    1
    42     4    38    1
    43     5    39    1
    44     5    40    1
    45     6    41    1
    46     6    42    1
    47     7    43    1
    48     7    44    1
    49     7    45    1
    50     9    46    1
    51    10    47    1
    52    14    48    1
    53    15    49    1
    54    24    50    1
    55    24    51    1
    56    24    52    1
    57    25    53    1
    58    25    54    1
    59    25    55    1
    60    26    56    1
    61    26    57    1
    62    27    58    1
    63    27    59    1
    64    29    60    1
    65    29    61    1
    66    29    62    1
    67    30    63    1
    68    30    64    1
    69    30    65    1
    70    34    66    1
    71    35    67    1
    72    68     1    1
    73    68    33    1
    74    68    18    1
    75    68    11    1
@<TRIPOS>MOLECULE
*****
 68 75 0 0 0
SMALL
GASTEIGER

@<TRIPOS>ATOM
      1 O          -0.1057   -0.2436   -0.9910 O.2     1  UNL1        0.0000
      2 C          -1.3016    0.6040   -0.6211 C.2     1  UNL1        0.0000
      3 N          -0.8949   -1.5488    3.0219 N.am    1  UNL1        0.0000
      4 C          -2.6587   -1.8076    2.3835 C.3     1  UNL1        0.0000
      5 C           0.3916   -2.2180    3.0922 C.3     1  UNL1        0.0000
      6 C           2.9465   -2.4427    2.3725 C.3     1  UNL1        0.0000
      7 C          -1.6280   -4.1811    0.1552 C.3     1  UNL1        0.0000
      8 C          -0.5131    2.5502    0.5994 C.ar    1  UNL1        0.0000
      9 C           1.2625    0.9297    1.0017 C.ar    1  UNL1        0.0000
     10 C          -0.4866   -0.4077   -4.2830 C.ar    1  UNL1        0.0000
     11 N           0.6203    2.7628   -1.1190 N.ar    1  UNL1        0.0000
     12 C           1.6019    2.3392   -2.2791 C.ar    1  UNL1        0.0000
     13 C          -1.5868    0.2976   -3.7378 C.ar    1  UNL1        0.0000
     14 C          -0.2617   -2.8028   -0.0414 C.ar    1  UNL1        0.0000
     15 C          -0.3568   -2.8161   -0.0465 C.ar    1  UNL1        0.0000
     16 C           0.2515   -1.2486   -2.6092 C.ar    1  UNL1        0.0000
     17 C           2.4878   -1.1371   -1.9106 C.ar    1  UNL1        0.0000
     18 N           1.2815   -0.6508    0.5617 N.ar    1  UNL1        0.0000
     19 C          -0.3813   -0.8868    0.9328 C.ar    1  UNL1        0.0000
     20 C          -1.2547   -0.8424    1.6475 C.ar    1  UNL1        0.0000
     21 N          -2.9618    0.8015   -0.5810 N.ar    1  UNL1        0.0000
     22 C          -1.3182   -0.2196   -2.0784 C.ar    1  UNL1        0.0000
     23 C          -0.7458   -4.3857   -2.0042 C.3     1  UNL1        0.0000
     24 C          -1.4996    1.0596    0.9150 C.3     1  UNL1        0.0000
     25 C           0.4145    1.3041   -2.4622 C.3     1  UNL1        0.0000
     26 C          -1.5747    0.9627    0.9208 C.3     1  UNL1        0.0000
     27 C          -2.7969   -0.3124    0.6005 C.3     1  UNL1        0.0000
     28 C           2.5887    0.4440    1.9470 C.3     1  UNL1        0.0000
     29 C           1.5620    0.9436    2.5737 C.3     1  UNL1        0.0000
     30 C          -3.0263   -2.5739    0.8983 C.3     1  UNL1        0.0000
     31 C          -1.0435    0.6849   -2.2260 C.ar    1  UNL1        0.0000
     32 N          -2.5293    3.4361    0.0938 N.ar    1  UNL1        0.0000
     33 N           0.1866    1.9930    2.4367 N.ar    1  UNL1        0.0000
     34 C          -0.3251   -0.1444    1.1279 C.ar    1  UNL1        0.0000
     35 C           0.2000    1.4321   -0.2421 C.ar    1  UNL1        0.0000
     36 H          -1.7950    0.4892    2.3726 H       1  UNL1        0.0000
     37 H          -1.0433   -4.2720    2.7160 H       1  UNL1        0.0000
     38 H          -0.3372    1.0746    3.3826 H       1  UNL1        0.0000
     39 H           0.0399   -2.9094   -1.9285 H       1  UNL1        0.0000
     40 H          -2.3944   -0.4702    2.8462 H       1  UNL1        0.0000
     41 H           3.5908   -1.5275    2.7001 H       1  UNL1        0.0000
     42 H          -2.8581   -1.0084   -1.6592 H       1  UNL1        0.0000
     43 H          -0.4089    1.5176   -4.4369 H       1  UNL1        0.0000
     44 H           2.4694    1.0931   -1.0188 H       1  UNL1        0.0000
     45 H           1.4069   -1.9681    0.5204 H       1  UNL1        0.0000
     46 H          -0.7342   -0.1899    3.3250 H       1  UNL1        0.0000
     47 H           0.2599   -3.2903   -3.1900 H       1  UNL1        0.0000
     48 H           3.9479   -1.5409   -2.0906 H       1  UNL1        0.0000
     49 H          -0.2383    1.1804    4.9011 H       1  UNL1        0.0000
     50 H          -0.9826   -3.0074    1.3430 H       1  UNL1        0.0000
     51 H          -1.1492   -1.8850   -1.7384 H       1  UNL1        0.0000
     52 H          -0.7110    3.3161   -1.0404 H       1  UNL1        0.0000
     53 H           1.4572   -3.4798   -2.5348 H       1  UNL1        0.0000
     54 H          -1.1606    2.1448   -1.2398 H       1  UNL1        0.0000
     55 H           0.8346   -1.8314   -0.6077 H       1  UNL1        0.0000
     56 H           2.9565    0.4394    0.1104 H       1  UNL1        0.0000
     57 H           1.3519   -2.7000   -3.6280 H       1  UNL1        0.0000
     58 H          -1.3567   -1.8157   -3.8157 H       1  UNL1        0.0000
     59 H           0.8801   -0.4216    2.6526 H       1  UNL1        0.0000
     60 H          -2.8749    2.2199   -0.5473 H       1  UNL1        0.0000
     61 H           1.1760    0.1696   -3.8839 H       1  UNL1        0.0000
     62 H           2.0278    1.8648   -5.0274 H       1  UNL1        0.0000
     63 H           0.9379    3.7542   -0.2053 H       1  UNL1        0.0000
     64 H           2.8570   -0.6056   -0.5779 H       1  UNL1        0.0000
     65 H          -2.2479   -2.9774    1.3343 H       1  UNL1        0.0000
     66 H          -2.3634    1.6673    1.9046 H       1  UNL1        0.0000
     67 H           2.8240    1.9612    1.6062 H       1  UNL1        0.0000
     68 EU          1.6475    1.4943   -0.1879 Eu      1  UNL1        0.0000
@<TRIPOS>BOND
     1     1     2    2
     2     2     3   am
     3     3     4    1
     4     3     5    1
     5     5     6    1
     6     6     7    1
     7     2     8    1
     8     8     9   ar
     9     9    10   ar
    10     8    11   ar
    11    11    12   ar
    12    12    13   ar
    13    10    13   ar
    14    13    14   ar
    15    14    15   ar
    16    15    16   ar
    17    16    17   ar
    18    12    17   ar
    19    17    18   ar
    20    18    19   ar
    21    19    20    1
    22    20    21   ar
    23    21    22   ar
    24    22    23    1
    25    23    24    1
    26    23    25    1
    27    23    26    1
    28    26    27    1
    29    27    28    1
    30    28    29    1
    31    28    30    1
    32    22    31   ar
    33    28    31    1
    34    31    32   ar
    35    32    33   ar
    36    20    33   ar
    37    19    34   ar
    38    34    35   ar
    39    16    35   ar
    40     4    36    1
    41     4    37    1
    42     4    38    1
    43     5    39    1
    44     5    40    1
    45     6    41    1
    46     6    42    1
    47     7    43    1
    48     7    44    1
    49     7    45    1
    50     9    46    1
    51    10    47    1
    52    14    48    1
    53    15    49    1
    54    24    50    1
    55    24    51    1
    56    24    52    1
    57    25    53    1
    58    25    54    1
    59    25    55    1
    60    26    56    1
    61    26    57    1
    62    27    58    1
    63    27    59    1
    64    29    60    1
    65    29    61    1
    66    29    62    1
    67    30    63    1
    68    30    64    1
    69    30    65    1
    70    34    66    1
    71    35    67    1
    72    68     1    1
    73    68    33    1
    74    68    18    1
    75    68    11    1
@<TRIPOS>MOLECULE
*****
 68 75 0 0 0
SMALL
GASTEIGER

@<TRIPOS>ATOM
      1 O          -0.1057   -0.2436   -0.9910 O.2     1  UNL1        0.0000
      2 C          -1.3016    0.6040   -0.6211 C.2     1  UNL1        0.0000
      3 N          -0.8949   -1.5488    3.0219 N.am    1  UNL1        0.0000
      4 C          -2.6587   -1.8076    2.3835 C.3     1  UNL1        0.0000
      5 C           0.3916   -2.2180    3.0922 C.3     1  UNL1        0.0000
      6 C           2.9465   -2.4427    2.3725 C.3     1  UNL1        0.0000
      7 C          -1.6280   -4.1811    0.1552 C.3     1  UNL1        0.0000
      8 C          -0.5131    2.5502    0.5994 C.ar    1  UNL1        0.0000
      9 C           1.2625    0.9297    1.0017 C.ar    1  UNL1        0.0000
     10 C          -0.4866   -0.4077   -4.2830 C.ar    1  UNL1        0.0000
     11 N           0.6203    2.7628   -1.1190 N.ar    1  UNL1        0.0000
     12 C           1.6019    2.3392   -2.2791 C.ar    1  UNL1        0.0000
     13 C          -1.5868    0.2976   -3.7378 C.ar    1  UNL1        0.0000
     14 C          -0.2617   -2.8028   -0.0414 C.ar    1  UNL1        0.0000
     15 C          -0.3568   -2.8161   -0.0465 C.ar    1  UNL1        0.0000
     16 C           0.2515   -1.2486   -2.6092 C.ar    1  UNL1        0.0000
     17 C           2.4878   -1.1371   -1.9106 C.ar    1  UNL1        0.0000
     18 N           1.2815   -0.6508    0.5617 N.ar    1  UNL1        0.0000
     19 C          -0.3813   -0.8868    0.9328 C.ar    1  UNL1        0.0000
     20 C          -1.2547   -0.8424    1.6475 C.ar    1  UNL1        0.0000
     21 N          -2.9618    0.8015   -0.5810 N.ar    1  UNL1        0.0000
     22 C          -1.3182   -0.2196   -2.0784 C.ar    1  UNL1        0.0000
     23 C          -0.7458   -4.3857   -2.0042 C.3     1  UNL1        0.0000
     24 C          -1.4996    1.0596    0.9150 C.3     1  UNL1        0.0000
     25 C           0.4145    1.3041   -2.4622 C.3     1  UNL1        0.0000
     26 C          -1.5747    0.9627    0.9208 C.3     1  UNL1        0.0000
     27 C          -2.7969   -0.3124    0.6005 C.3     1  UNL1        0.0000
     28 C           2.5887    0.4440    1.9470 C.3     1  UNL1        0.0000
     29 C           1.5620    0.9436    2.5737 C.3     1  UNL1        0.0000
     30 C          -3.0263   -2.5739    0.8983 C.3     1  UNL1        0.0000
     31 C          -1.0435    0.6849   -2.2260 C.ar    1  UNL1        0.0000
     32 N          -2.5293    3.4361    0.0938 N.ar    1  UNL1        0.0000
     33 N           0.1866    1.9930    2.4367 N.ar    1  UNL1        0.0000
     34 C          -0.3251   -0.1444    1.1279 C.ar    1  UNL1        0.0000
     35 C           0.2000    1.4321   -0.2421 C.ar    1  UNL1        0.0000
     36 H          -1.7950    0.4892    2.3726 H       1  UNL1        0.0000
     37 H          -1.0433   -4.2720    2.7160 H       1  UNL1        0.0000
     38 H          -0.3372    1.0746    3.3826 H       1  UNL1        0.0000
     39 H           0.0399   -2.9094   -1.9285 H       1  UNL1        0.0000
     40 H          -2.3944   -0.4702    2.8462 H       1  UNL1        0.0000
     41 H           3.5908   -1.5275    2.7001 H       1  UNL1        0.0000
     42 H          -2.8581   -1.0084   -1.6592 H       1  UNL1        0.0000
     43 H          -0.4089    1.5176   -4.4369 H       1  UNL1        0.0000
     44 H           2.4694    1.0931   -1.0188 H       1  UNL1        0.0000
     45 H           1.4069   -1.9681    0.5204 H       1  UNL1        0.0000
     46 H          -0.7342   -0.1899    3.3250 H       1  UNL1        0.0000
     47 H           0.2599   -3.2903   -3.1900 H       1  UNL1        0.0000
     48 H           3.9479   -1.5409   -2.0906 H       1  UNL1        0.0000
     49 H          -0.2383    1.1804    4.9011 H       1  UNL1        0.0000
     50 H          -0.9826   -3.0074    1.3430 H       1  UNL1        0.0000
     51 H          -1.1492   -1.8850   -1.7384 H       1  UNL1        0.0000
     52 H          -0.7110    3.3161   -1.0404 H       1  UNL1        0.0000
     53 H           1.4572   -3.4798   -2.5348 H       1  UNL1        0.0000
     54 H          -1.1606    2.1448   -1.2398 H       1  UNL1        0.0000
     55 H           0.8346   -1.8314   -0.6077 H       1  UNL1        0.0000
     56 H           2.9565    0.4394    0.1104 H       1  UNL1        0.0000
     57 H           1.3519   -2.7000   -3.6280 H       1  UNL1        0.0000
     58 H          -1.3567   -1.8157   -3.8157 H       1  UNL1        0.0000
     59 H           0.8801   -0.4216    2.6526 H       1  UNL1        0.0000
     60 H          -2.8749    2.2199   -0.5473 H       1  UNL1        0.0000
     61 H           1.1760    0.1696   -3.8839 H       1  UNL1        0.0000
     62 H           2.0278    1.8648   -5.0274 H       1  UNL1        0.0000
     63 H           0.9379    3.7542   -0.2053 H       1  UNL1        0.0000
     64 H           2.8570   -0.6056   -0.5779 H       1  UNL1        0.0000
     65 H          -2.2479   -2.9774    1.3343 H       1  UNL1        0.0000
     66 H          -2.3634    1.6673    1.9046 H       1  UNL1        0.0000
     67 H           2.8240    1.9612    1.6062 H       1  UNL1        0.0000
     68 EU          1.6475    1.4943   -0.1879 Eu      1  UNL1        0.0000
@<TRIPOS>BOND
     1     1     2    2
     2     2     3   am
     3     3     4    1
     4     3     5    1
     5     5     6    1
     6     6     7    1
     7     2     8    1
     8     8     9   ar
     9     9    10   ar
    10     8    11   ar
    11    11    12   ar
    12    12    13   ar
    13    10    13   ar
    14    13    14   ar
    15    14    15   ar
    16    15    16   ar
    17    16    17   ar
    18    12    17   ar
    19    17    18   ar
    20    18    19   ar
    21    19    20    1
    22    20    21   ar
    23    21    22   ar
    24    22    23    1
    25    23    24    1
    26    23    25    1
    27    23    26    1
    28    26    27    1
    29    27    28    1
    30    28    29    1
    31    28    30    1
    32    22    31   ar
    33    28    31    1
    34    31    32   ar
    35    32    33   ar
    36    20    33   ar
    37    19    34   ar
    38    34    35   ar
    39    16    35   ar
    40     4    36    1
    41     4    37    1
    42     4    38    1
    43     5    39    1
    44     5    40    1
    45     6    41    1
    46     6    42    1
    47     7    43    1
    48     7    44    1
    49     7    45    1
    50     9    46    1
    51    10    47    1
    52    14    48    1
    53    15    49    1
    54    24    50    1
    55    24    51    1
    56    24    52    1
    57    25    53    1
    58    25    54    1
    59    25    55    1
    60    26    56    1
    61    26    57    1
    62    27    58    1
    63    27    59    1
    64    29    60    1
    65    29    61    1
    66    29    62    1
    67    30    63    1
    68    30    64    1
    69    30    65    1
    70    34    66    1
    71    35    67    1
    72    68     1    1
    73    68    33    1
    74    68    18    1
    75    68    11    1
@<TRIPOS>MOLECULE
*****
 68 75 0 0 0
SMALL
GASTEIGER

@<TRIPOS>ATOM
      1 O          -0.1057   -0.2436   -0.9910 O.2     1  UNL1        0.0000
      2 C          -1.3016    0.6040   -0.6211 C.2     1  UNL1        0.0000
      3 N          -0.8949   -1.5488    3.0219 N.am    1  UNL1        0.0000
      4 C          -2.6587   -1.8076    2.3835 C.3     1  UNL1        0.0000
      5 C           0.3916   -2.2180    3.0922 C.3     1  UNL1        0.0000
      6 C           2.9465   -2.4427    2.3725 C.3     1  UNL1        0.0000
      7 C          -1.6280   -4.1811    0.1552 C.3     1  UNL1        0.0000
      8 C          -0.5131    2.5502    0.5994 C.ar    1  UNL1        0.0000
      9 C           1.2625    0.9297    1.0017 C.ar    1  UNL1        0.0000
     10 C          -0.4866   -0.4077   -4.2830 C.ar    1  UNL1        0.0000
     11 N           0.6203    2.7628   -1.1190 N.ar    1  UNL1        0.0000
     12 C           1.6019    2.3392   -2.2791 C.ar    1  UNL1        0.0000
     13 C          -1.5868    0.2976   -3.7378 C.ar    1  UNL1        0.0000
     14 C          -0.2617   -2.8028   -0.0414 C.ar    1  UNL1        0.0000
     15 C          -0.3568   -2.8161   -0.0465 C.ar    1  UNL1        0.0000
     16 C           0.2515   -1.2486   -2.6092 C.ar    1  UNL1        0.0000
     17 C           2.4878   -1.1371   -1.9106 C.ar    1  UNL1        0.0000
     18 N           1.2815   -0.6508    0.5617 N.ar    1  UNL1        0.0000
     19 C          -0.3813   -0.8868    0.9328 C.ar    1  UNL1        0.0000
     20 C          -1.2547   -0.8424    1.6475 C.ar    1  UNL1        0.0000
     21 N          -2.9618    0.8015   -0.5810 N.ar    1  UNL1        0.0000
     22 C          -1.3182   -0.2196   -2.0784 C.ar    1  UNL1        0.0000
     23 C          -0.7458   -4.3857   -2.0042 C.3     1  UNL1        0.0000
     24 C          -1.4996    1.0596    0.9150 C.3     1  UNL1        0.0000
     25 C           0.4145    1.3041   -2.4622 C.3     1  UNL1        0.0000
     26 C          -1.5747    0.9627    0.9208 C.3     1  UNL1        0.0000
     27 C          -2.7969   -0.3124    0.6005 C.3     1  UNL1        0.0000
     28 C           2.5887    0.4440    1.9470 C.3     1  UNL1        0.0000
     29 C           1.5620    0.9436    2.5737 C.3     1  UNL1        0.0000
     30 C          -3.0263   -2.5739    0.8983 C.3     1  UNL1        0.0000
     31 C          -1.0435    0.6849   -2.2260 C.ar    1  UNL1        0.0000
     32 N          -2.5293    3.4361    0.0938 N.ar    1  UNL1        0.0000
     33 N           0.1866    1.9930    2.4367 N.ar    1  UNL1        0.0000
     34 C          -0.3251   -0.1444    1.1279 C.ar    1  UNL1        0.0000
     35 C           0.2000    1.4321   -0.2421 C.ar    1  UNL1        0.0000
     36 H          -1.7950    0.4892    2.3726 H       1  UNL1        0.0000
     37 H          -1.0433   -4.2720    2.7160 H       1  UNL1        0.0000
     38 H          -0.3372    1.0746    3.3826 H       1  UNL1        0.0000
     39 H           0.0399   -2.9094   -1.9285 H       1  UNL1        0.0000
     40 H          -2.3944   -0.4702    2.8462 H       1  UNL1        0.0000
     41 H           3.5908   -1.5275    2.7001 H       1  UNL1        0.0000
     42 H          -2.8581   -1.0084   -1.6592 H       1  UNL1        0.0000
     43 H          -0.4089    1.5176   -4.4369 H       1  UNL1        0.0000
     44 H           2.4694    1.0931   -1.0188 H       1  UNL1        0.0000
     45 H           1.4069   -1.9681    0.5204 H       1  UNL1        0.0000
     46 H          -0.7342   -0.1899    3.3250 H       1  UNL1        0.0000
     47 H           0.2599   -3.2903   -3.1900 H       1  UNL1        0.0000
     48 H           3.9479   -1.5409   -2.0906 H       1  UNL1        0.0000
     49 H          -0.2383    1.1804    4.9011 H       1  UNL1        0.0000
     50 H          -0.9826   -3.0074    1.3430 H       1  UNL1        0.0000
     51 H          -1.1492   -1.8850   -1.7384 H       1  UNL1        0.0000
     52 H          -0.7110    3.3161   -1.0404 H       1  UNL1        0.0000
     53 H           1.4572   -3.4798   -2.5348 H       1  UNL1        0.0000
     54 H          -1.1606    2.1448   -1.2398 H       1  UNL1        0.0000
     55 H           0.8346   -1.8314   -0.6077 H       1  UNL1        0.0000
     56 H           2.9565    0.4394    0.1104 H       1  UNL1        0.0000
     57 H           1.3519   -2.7000   -3.6280 H       1  UNL1        0.0000
     58 H          -1.3567   -1.8157   -3.8157 H       1  UNL1        0.0000
     59 H           0.8801   -0.4216    2.6526 H       1  UNL1        0.0000
     60 H          -2.8749    2.2199   -0.5473 H       1  UNL1        0.0000
     61 H           1.1760    0.1696   -3.8839 H       1  UNL1        0.0000
     62 H           2.0278    1.8648   -5.0274 H       1  UNL1        0.0000
     63 H           0.9379    3.7542   -0.2053 H       1  UNL1        0.0000
     64 H           2.8570   -0.6056   -0.5779 H       1  UNL1        0.0000
     65 H          -2.2479   -2.9774    1.3343 H       1  UNL1        0.0000
     66 H          -2.3634    1.6673    1.9046 H       1  UNL1        0.0000
     67 H           2.8240    1.9612    1.6062 H       1  UNL1        0.0000
     68 EU          1.6475    1.4943   -0.1879 Eu      1  UNL1        0.0000
@<TRIPOS>BOND
     1     1     2    2
     2     2     3   am
     3     3     4    1
     4     3     5    1
     5     5     6    1
     6     6     7    1
     7     2     8    1
     8     8     9   ar
     9     9    10   ar
    10     8    11   ar
    11    11    12   ar
    12    12    13   ar
    13    10    13   ar
    14    13    14   ar
    15    14    15   ar
    16    15    16   ar
    17    16    17   ar
    18    12    17   ar
    19    17    18   ar
    20    18    19   ar
    21    19    20    1
    22    20    21   ar
    23    21    22   ar
    24    22    23    1
    25    23    24    1
    26    23    25    1
    27    23    26    1
    28    26    27    1
    29    27    28    1
    30    28    29    1
    31    28    30    1
    32    22    31   ar
    33    28    31    1
    34    31    32   ar
    35    32    33   ar
    36    20    33   ar
    37    19    34   ar
    38    34    35   ar
    39    16    35   ar
    40     4    36    1
    41     4    37    1
    42     4    38    1
    43     5    39    1
    44     5    40    1
    45     6    41    1
    46     6    42    1
    47     7    43    1
    48     7    44    1
    49     7    45    1
    50     9    46    1
    51    10    47    1
    52    14    48    1
    53    15    49    1
    54    24    50    1
    55    24    51    1
    56    24    52    1
    57    25    53    1
    58    25    54    1
    59    25    55    1
    60    26    56    1
    61    26    57    1
    62    27    58    1
    63    27    59    1
    64    29    60    1
    65    29    61    1
    66    29    62    1
    67    30    63    1
    68    30    64    1
    69    30    65    1
    70    34    66    1
    71    35    67    1
    72    68     1    1
    73    68    33    1
    74    68    18    1
    75    68    11    1
@<TRIPOS>MOLECULE
*****
 68 75 0 0 0
SMALL
GASTEIGER

@<TRIPOS>ATOM
      1 O          -0.1057   -0.2436   -0.9910 O.2     1  UNL1        0.0000
      2 C          -1.3016    0.6040   -0.6211 C.2     1  UNL1        0.0000
      3 N          -0.8949   -1.5488    3.0219 N.am    1  UNL1        0.0000
      4 C          -2.6587   -1.8076    2.3835 C.3     1  UNL1        0.0000
      5 C           0.3916   -2.2180    3.0922 C.3     1  UNL1        0.0000
      6 C           2.9465   -2.4427    2.3725 C.3     1  UNL1        0.0000
      7 C          -1.6280   -4.1811    0.1552 C.3     1  UNL1        0.0000
      8 C          -0.5131    2.5502    0.5994 C.ar    1  UNL1        0.0000
      9 C           1.2625    0.9297    1.0017 C.ar    1  UNL1        0.0000
     10 C          -0.4866   -0.4077   -4.2830 C.ar    1  UNL1        0.0000
     11 N           0.6203    2.7628   -1.1190 N.ar    1  UNL1        0.0000
     12 C           1.6019    2.3392   -2.2791 C.ar    1  UNL1        0.0000
     13 C          -1.5868    0.2976   -3.7378 C.ar    1  UNL1        0.0000
     14 C          -0.2617   -2.8028   -0.0414 C.ar    1  UNL1        0.0000
     15 C          -0.3568   -2.8161   -0.0465 C.ar    1  UNL1        0.0000
     16 C           0.2515   -1.2486   -2.6092 C.ar    1  UNL1        0.0000
     17 C           2.4878   -1.1371   -1.9106 C.ar    1  UNL1        0.0000
     18 N           1.2815   -0.6508    0.5617 N.ar    1  UNL1        0.0000
     19 C          -0.3813   -0.8868    0.9328 C.ar    1  UNL1        0.0000
     20 C          -1.2547   -0.8424    1.6475 C.ar    1  UNL1        0.0000
     21 N          -2.9618    0.8015   -0.5810 N.ar    1  UNL1        0.0000
     22 C          -1.3182   -0.2196   -2.0784 C.ar    1  UNL1        0.0000
     23 C          -0.7458   -4.3857   -2.0042 C.3     1  UNL1        0.0000
     24 C          -1.4996    1.0596    0.9150 C.3     1  UNL1        0.0000
     25 C           0.4145    1.3041   -2.4622 C.3     1  UNL1        0.0000
     26 C          -1.5747    0.9627    0.9208 C.3     1  UNL1        0.0000
     27 C          -2.7969   -0.3124    0.6005 C.3     1  UNL1        0.0000
     28 C           2.5887    0.4440    1.9470 C.3     1  UNL1        0.0000
     29 C           1.5620    0.9436    2.5737 C.3     1  UNL1        0.0000
     30 C          -3.0263   -2.5739    0.8983 C.3     1  UNL1        0.0000
     31 C          -1.0435    0.6849   -2.2260 C.ar    1  UNL1        0.0000
     32 N          -2.5293    3.4361    0.0938 N.ar    1  UNL1        0.0000
     33 N           0.1866    1.9930    2.4367 N.ar    1  UNL1        0.0000
     34 C          -0.3251   -0.1444    1.1279 C.ar    1  UNL1        0.0000
     35 C           0.2000    1.4321   -0.2421 C.ar    1  UNL1        0.0000
     36 H          -1.7950    0.4892    2.3726 H       1  UNL1        0.0000
     37 H          -1.0433   -4.2720    2.7160 H       1  UNL1        0.0000
     38 H          -0.3372    1.0746    3.3826 H       1  UNL1        0.0000
     39 H           0.0399   -2.9094   -1.9285 H       1  UNL1        0.0000
     40 H          -2.3944   -0.4702    2.8462 H       1  UNL1        0.0000
     41 H           3.5908   -1.5275    2.7001 H       1  UNL1        0.0000
     42 H          -2.8581   -1.0084   -1.6592 H       1  UNL1        0.0000
     43 H          -0.4089    1.5176   -4.4369 H       1  UNL1        0.0000
     44 H           2.4694    1.0931   -1.0188 H       1  UNL1        0.0000
     45 H           1.4069   -1.9681    0.5204 H       1  UNL1        0.0000
     46 H          -0.7342   -0.1899    3.3250 H       1  UNL1        0.0000
     47 H           0.2599   -3.2903   -3.1900 H       1  UNL1        0.0000
     48 H           3.9479   -1.5409   -2.0906 H       1  UNL1        0.0000
     49 H          -0.2383    1.1804    4.9011 H       1  UNL1        0.0000
     50 H          -0.9826   -3.0074    1.3430 H       1  UNL1        0.0000
     51 H          -1.1492   -1.8850   -1.7384 H       1  UNL1        0.0000
     52 H          -0.7110    3.3161   -1.0404 H       1  UNL1        0.0000
     53 H           1.4572   -3.4798   -2.5348 H       1  UNL1        0.0000
     54 H          -1.1606    2.1448   -1.2398 H       1  UNL1        0.0000
     55 H           0.8346   -1.8314   -0.6077 H       1  UNL1        0.0000
     56 H           2.9565    0.4394    0.1104 H       1  UNL1        0.0000
     57 H           1.3519   -2.7000   -3.6280 H       1  UNL1        0.0000
     58 H          -1.3567   -1.8157   -3.8157 H       1  UNL1        0.0000
     59 H           0.8801   -0.4216    2.6526 H       1  UNL1        0.0000
     60 H          -2.8749    2.2199   -0.5473 H       1  UNL1        0.0000
     61 H           1.1760    0.1696   -3.8839 H       1  UNL1        0.0000
     62 H           2.0278    1.8648   -5.0274 H       1  UNL1        0.0000
     63 H           0.9379    3.7542   -0.2053 H       1  UNL1        0.0000
     64 H           2.8570   -0.6056   -0.5779 H       1  UNL1        0.0000
     65 H          -2.2479   -2.9774    1.3343 H       1  UNL1        0.0000
     66 H          -2.3634    1.6673    1.9046 H       1  UNL1        0.0000
     67 H           2.8240    1.9612    1.6062 H       1  UNL1        0.0000
     68 EU          1.6475    1.4943   -0.1879 Eu      1  UNL1        0.0000
@<TRIPOS>BOND
     1     1     2    2
     2     2     3   am
     3     3     4    1
     4     3     5    1
     5     5     6    1
     6     6     7    1
     7     2     8    1
     8     8     9   ar
     9     9    10   ar
    10     8    11   ar
    11    11    12   ar
    12    12    13   ar
    13    10    13   ar
    14    13    14   ar
    15    14    15   ar
    16    15    16   ar
    17    16    17   ar
    18    12    17   ar
    19    17    18   ar
    20    18    19   ar
    21    19    20    1
    22    20    21   ar
    23    21    22   ar
    24    22    23    1
    25    23    24    1
    26    23    25    1
    27    23    26    1
    28    26    27    1
    29    27    28    1
    30    28    29    1
    31    28    30    1
    32    22    31   ar
    33    28    31    1
    34    31    32   ar
    35    32    33   ar
    36    20    33   ar
    37    19    34   ar
    38    34    35   ar
    39    16    35   ar
    40     4    36    1
    41     4    37    1
    42     4    38    1
    43     5    39    1
    44     5    40    1
    45     6    41    1
    46     6    42    1
    47     7    43    1
    48     7    44    1
    49     7    45    1
    50     9    46    1
    51    10    47    1
    52    14    48    1
    53    15    49    1
    54    24    50    1
    55    24    51    1
    56    24    52    1
    57    25    53    1
    58    25    54    1
    59    25    55    1
    60    26    56    1
    61    26    57    1
    62    27    58    1
    63    27    59    1
    64    29    60    1
    65    29    61    1
    66    29    62    1
    67    30    63    1
    68    30    64    1
    69    30    65    1
    70    34    66    1
    71    35    67    1
    72    68     1    1
    73    68    33    1
    74    68    18    1
    75    68    11    1
@<TRIPOS>MOLECULE
*****
 68 75 0 0 0
SMALL
GASTEIGER

@<TRIPOS>ATOM
      1 O          -0.1057   -0.2436   -0.9910 O.2     1  UNL1        0.0000
      2 C          -1.3016    0.6040   -0.6211 C.2     1  UNL1        0.0000
      3 N          -0.8949   -1.5488    3.0219 N.am    1  UNL1        0.0000
      4 C          -2.6587   -1.8076    2.3835 C.3     1  UNL1        0.0000
      5 C           0.3916   -2.2180    3.0922 C.3     1  UNL1        0.0000
      6 C           2.9465   -2.4427    2.3725 C.3     1  UNL1        0.0000
      7 C          -1.6280   -4.1811    0.1552 C.3     1  UNL1        0.0000
      8 C          -0.5131    2.5502    0.5994 C.ar    1  UNL1        0.0000
      9 C           1.2625    0.9297    1.0017 C.ar    1  UNL1        0.0000
     10 C          -0.4866   -0.4077   -4.2830 C.ar    1  UNL1        0.0000
     11 N           0.6203    2.7628   -1.1190 N.ar    1  UNL1        0.0000
     12 C           1.6019    2.3392   -2.2791 C.ar    1  UNL1        0.0000
     13 C          -1.5868    0.2976   -3.7378 C.ar    1  UNL1        0.0000
     14 C          -0.2617   -2.8028   -0.0414 C.ar    1  UNL1        0.0000
     15 C          -0.3568   -2.8161   -0.0465 C.ar    1  UNL1        0.0000
     16 C           0.2515   -1.2486   -2.6092 C.ar    1  UNL1        0.0000
     17 C           2.4878   -1.1371   -1.9106 C.ar    1  UNL1        0.0000
     18 N           1.2815   -0.6508    0.5617 N.ar    1  UNL1        0.0000
     19 C          -0.3813   -0.8868    0.9328 C.ar    1  UNL1        0.0000
     20 C          -1.2547   -0.8424    1.6475 C.ar    1  UNL1        0.0000
     21 N          -2.9618    0.8015   -0.5810 N.ar    1  UNL1        0.0000
     22 C          -1.3182   -0.2196   -2.0784 C.ar    1  UNL1        0.0000
     23 C          -0.7458   -4.3857   -2.0042 C.3     1  UNL1        0.0000
     24 C          -1.4996    1.0596    0.9150 C.3     1  UNL1        0.0000
     25 C           0.4145    1.3041   -2.4622 C.3     1  UNL1        0.0000
     26 C          -1.5747    0.9627    0.9208 C.3     1  UNL1        0.0000
     27 C          -2.7969   -0.3124    0.6005 C.3     1  UNL1        0.0000
     28 C           2.5887    0.4440    1.9470 C.3     1  UNL1        0.0000
     29 C           1.5620    0.9436    2.5737 C.3     1  UNL1        0.0000
     30 C          -3.0263   -2.5739    0.8983 C.3     1  UNL1        0.0000
     31 C          -1.0435    0.6849   -2.2260 C.ar    1  UNL1        0.0000
     32 N          -2.5293    3.4361    0.0938 N.ar    1  UNL1        0.0000
     33 N           0.1866    1.9930    2.4367 N.ar    1  UNL1        0.0000
     34 C          -0.3251   -0.1444    1.1279 C.ar    1  UNL1        0.0000
     35 C           0.2000    1.4321   -0.2421 C.ar    1  UNL1        0.0000
     36 H          -1.7950    0.4892    2.3726 H       1  UNL1        0.0000
     37 H          -1.0433   -4.2720    2.7160 H       1  UNL1        0.0000
     38 H          -0.3372    1.0746    3.3826 H       1  UNL1        0.0000
     39 H           0.0399   -2.9094   -1.9285 H       1  UNL1        0.0000
     40 H          -2.3944   -0.4702    2.8462 H       1  UNL1        0.0000
     41 H           3.5908   -1.5275    2.7001 H       1  UNL1        0.0000
     42 H          -2.8581   -1.0084   -1.6592 H       1  UNL1        0.0000
     43 H          -0.4089    1.5176   -4.4369 H       1  UNL1        0.0000
     44 H           2.4694    1.0931   -1.0188 H       1  UNL1        0.0000
     45 H           1.4069   -1.9681    0.5204 H       1  UNL1        0.0000
     46 H          -0.7342   -0.1899    3.3250 H       1  UNL1        0.0000
     47 H           0.2599   -3.2903   -3.1900 H       1  UNL1        0.0000
     48 H           3.9479   -1.5409   -2.0906 H       1  UNL1        0.0000
     49 H          -0.2383    1.1804    4.9011 H       1  UNL1        0.0000
     50 H          -0.9826   -3.0074    1.3430 H       1  UNL1        0.0000
     51 H          -1.1492   -1.8850   -1.7384 H       1  UNL1        0.0000
     52 H          -0.7110    3.3161   -1.0404 H       1  UNL1        0.0000
     53 H           1.4572   -3.4798   -2.5348 H       1  UNL1        0.0000
     54 H          -1.1606    2.1448   -1.2398 H       1  UNL1        0.0000
     55 H           0.8346   -1.8314   -0.6077 H       1  UNL1        0.0000
     56 H           2.9565    0.4394    0.1104 H       1  UNL1        0.0000
     57 H           1.3519   -2.7000   -3.6280 H       1  UNL1        0.0000
     58 H          -1.3567   -1.8157   -3.8157 H       1  UNL1        0.0000
     59 H           0.8801   -0.4216    2.6526 H       1  UNL1        0.0000
     60 H          -2.8749    2.2199   -0.5473 H       1  UNL1        0.0000
     61 H           1.1760    0.1696   -3.8839 H       1  UNL1        0.0000
     62 H           2.0278    1.8648   -5.0274 H       1  UNL1        0.0000
     63 H           0.9379    3.7542   -0.2053 H       1  UNL1        0.0000
     64 H           2.8570   -0.6056   -0.5779 H       1  UNL1        0.0000
     65 H          -2.2479   -2.9774    1.3343 H       1  UNL1        0.0000
     66 H          -2.3634    1.6673    1.9046 H       1  UNL1        0.0000
     67 H           2.8240    1.9612    1.6062 H       1  UNL1        0.0000
     68 EU          1.6475    1.4943   -0.1879 Eu      1  UNL1        0.0000
@<TRIPOS>BOND
     1     1     2    2
     2     2     3   am
     3     3     4    1
     4     3     5    1
     5     5     6    1
     6     6     7    1
     7     2     8    1
     8     8     9   ar
     9     9    10   ar
    10     8    11   ar
    11    11    12   ar
    12    12    13   ar
    13    10    13   ar
    14    13    14   ar
    15    14    15   ar
    16    15    16   ar
    17    16    17   ar
    18    12    17   ar
    19    17    18   ar
    20    18    19   ar
    21    19    20    1
    22    20    21   ar
    23    21    22   ar
    24    22    23    1
    25    23    24    1
    26    23    25    1
    27    23    26    1
    28    26    27    1
    29    27    28    1
    30    28    29    1
    31    28    30    1
    32    22    31   ar
    33    28    31    1
    34    31    32   ar
    35    32    33   ar
    36    20    33   ar
    37    19    34   ar
    38    34    35   ar
    39    16    35   ar
    40     4    36    1
    41     4    37    1
    42     4    38    1
    43     5    39    1
    44     5    40    1
    45     6    41    1
    46     6    42    1
    47     7    43    1
    48     7    44    1
    49     7    45    1
    50     9    46    1
    51    10    47    1
    52    14    48    1
    53    15    49    1
    54    24    50    1
    55    24    51    1
    56    24    52    1
    57    25    53    1
    58    25    54    1
    59    25    55    1
    60    26    56    1
    61    26    57    1
    62    27    58    1
    63    27    59    1
    64    29    60    1
    65    29    61    1
    66    29    62    1
    67    30    63    1
    68    30    64    1
    69    30    65    1
    70    34    66    1
    71    35    67    1
    72    68     1    1
    73    68    33    1
    74    68    18    1
    75    68    11    1
@<TRIPOS>MOLECULE
*****
 68 75 0 0 0
SMALL
GASTEIGER

@<TRIPOS>ATOM
      1 O          -0.1057   -0.2436   -0.9910 O.2     1  UNL1        0.0000
      2 C          -1.3016    0.6040   -0.6211 C.2     1  UNL1        0.0000
      3 N          -0.8949   -1.5488    3.0219 N.am    1  UNL1        0.0000
      4 C          -2.6587   -1.8076    2.3835 C.3     1  UNL1        0.0000
      5 C           0.3916   -2.2180    3.0922 C.3     1  UNL1        0.0000
      6 C           2.9465   -2.4427    2.3725 C.3     1  UNL1        0.0000
      7 C          -1.6280   -4.1811    0.1552 C.3     1  UNL1        0.0000
      8 C          -0.5131    2.5502    0.5994 C.ar    1  UNL1        0.0000
      9 C           1.2625    0.9297    1.0017 C.ar    1  UNL1        0.0000
     10 C          -0.4866   -0.4077   -4.2830 C.ar    1  UNL1        0.0000
     11 N           0.6203    2.7628   -1.1190 N.ar    1  UNL1        0.0000
     12 C           1.6019    2.3392   -2.2791 C.ar    1  UNL1        0.0000
     13 C          -1.5868    0.2976   -3.7378 C.ar    1  UNL1        0.0000
     14 C          -0.2617   -2.8028   -0.0414 C.ar    1  UNL1        0.0000
     15 C          -0.3568   -2.8161   -0.0465 C.ar    1  UNL1        0.0000
     16 C           0.2515   -1.2486   -2.6092 C.ar    1  UNL1        0.0000
     17 C           2.4878   -1.1371   -1.9106 C.ar    1  UNL1        0.0000
     18 N           1.2815   -0.6508    0.5617 N.ar    1  UNL1        0.0000
     19 C          -0.3813   -0.8868    0.9328 C.ar    1  UNL1        0.0000
     20 C          -1.2547   -0.8424    1.6475 C.ar    1  UNL1        0.0000
     21 N          -2.9618    0.8015   -0.5810 N.ar    1  UNL1        0.0000
     22 C          -1.3182   -0.2196   -2.0784 C.ar    1  UNL1        0.0000
     23 C          -0.7458   -4.3857   -2.0042 C.3     1  UNL1        0.0000
     24 C          -1.4996    1.0596    0.9150 C.3     1  UNL1        0.0000
     25 C           0.4145    1.3041   -2.4622 C.3     1  UNL1        0.0000
     26 C          -1.5747    0.9627    0.9208 C.3     1  UNL1        0.0000
     27 C          -2.7969   -0.3124    0.6005 C.3     1  UNL1        0.0000
     28 C           2.5887    0.4440    1.9470 C.3     1  UNL1        0.0000
     29 C           1.5620    0.9436    2.5737 C.3     1  UNL1        0.0000
     30 C          -3.0263   -2.5739    0.8983 C.3     1  UNL1        0.0000
     31 C          -1.0435    0.6849   -2.2260 C.ar    1  UNL1        0.0000
     32 N          -2.5293    3.4361    0.0938 N.ar    1  UNL1        0.0000
     33 N           0.1866    1.9930    2.4367 N.ar    1  UNL1        0.0000
     34 C          -0.3251   -0.1444    1.1279 C.ar    1  UNL1        0.0000
     35 C           0.2000    1.4321   -0.2421 C.ar    1  UNL1        0.0000
     36 H          -1.7950    0.4892    2.3726 H       1  UNL1        0.0000
     37 H          -1.0433   -4.2720    2.7160 H       1  UNL1        0.0000
     38 H          -0.3372    1.0746    3.3826 H       1  UNL1        0.0000
     39 H           0.0399   -2.9094   -1.9285 H       1  UNL1        0.0000
     40 H          -2.3944   -0.4702    2.8462 H       1  UNL1        0.0000
     41 H           3.5908   -1.5275    2.7001 H       1  UNL1        0.0000
     42 H          -2.8581   -1.0084   -1.6592 H       1  UNL1        0.0000
     43 H          -0.4089    1.5176   -4.4369 H       1  UNL1        0.0000
     44 H           2.4694    1.0931   -1.0188 H       1  UNL1        0.0000
     45 H           1.4069   -1.9681    0.5204 H       1  UNL1        0.0000
     46 H          -0.7342   -0.1899    3.3250 H       1  UNL1        0.0000
     47 H           0.2599   -3.2903   -3.1900 H       1  UNL1        0.0000
     48 H           3.9479   -1.5409   -2.0906 H       1  UNL1        0.0000
     49 H          -0.2383    1.1804    4.9011 H       1  UNL1        0.0000
     50 H          -0.9826   -3.0074    1.3430 H       1  UNL1        0.0000
     51 H          -1.1492   -1.8850   -1.7384 H       1  UNL1        0.0000
     52 H          -0.7110    3.3161   -1.0404 H       1  UNL1        0.0000
     53 H           1.4572   -3.4798   -2.5348 H       1  UNL1        0.0000
     54 H          -1.1606    2.1448   -1.2398 H       1  UNL1        0.0000
     55 H           0.8346   -1.8314   -0.6077 H       1  UNL1        0.0000
     56 H           2.9565    0.4394    0.1104 H       1  UNL1        0.0000
     57 H           1.3519   -2.7000   -3.6280 H       1  UNL1        0.0000
     58 H          -1.3567   -1.8157   -3.8157 H       1  UNL1        0.0000
     59 H           0.8801   -0.4216    2.6526 H       1  UNL1        0.0000
     60 H          -2.8749    2.2199   -0.5473 H       1  UNL1        0.0000
     61 H           1.1760    0.1696   -3.8839 H       1  UNL1        0.0000
     62 H           2.0278    1.8648   -5.0274 H       1  UNL1        0.0000
     63 H           0.9379    3.7542   -0.2053 H       1  UNL1        0.0000
     64 H           2.8570   -0.6056   -0.5779 H       1  UNL1        0.0000
     65 H          -2.2479   -2.9774    1.3343 H       1  UNL1        0.0000
     66 H          -2.3634    1.6673    1.9046 H       1  UNL1        0.0000
     67 H           2.8240    1.9612    1.6062 H       1  UNL1        0.0000
     68 EU          1.6475    1.4943   -0.1879 Eu      1  UNL1        0.0000
@<TRIPOS>BOND
     1     1     2    2
     2     2     3   am
     3     3     4    1
     4     3     5    1
     5     5     6    1
     6     6     7    1
     7     2     8    1
     8     8     9   ar
     9     9    10   ar
    10     8    11   ar
    11    11    12   ar
    12    12    13   ar
    13    10    13   ar
    14    13    14   ar
    15    14    15   ar
    16    15    16   ar
    17    16    17   ar
    18    12    17   ar
    19    17    18   ar
    20    18    19   ar
    21    19    20    1
    22    20    21   ar
    23    21    22   ar
    24    22    23    1
    25    23    24    1
    26    23    25    1
    27    23    26    1
    28    26    27    1
    29    27    28    1
    30    28    29    1
    31    28    30    1
    32    22    31   ar
    33    28    31    1
    34    31    32   ar
    35    32    33   ar
    36    20    33   ar
    37    19    34   ar
    38    34    35   ar
    39    16    35   ar
    40     4    36    1
    41     4    37    1
    42     4    38    1
    43     5    39    1
    44     5    40    1
    45     6    41    1
    46     6    42    1
    47     7    43    1
    48     7    44    1
    49     7    45    1
    50     9    46    1
    51    10    47    1
    52    14    48    1
    53    15    49    1
    54    24    50    1
    55    24    51    1
    56    24    52    1
    57    25    53    1
    58    25    54    1
    59    25    55    1
    60    26    56    1
    61    26    57    1
    62    27    58    1
    63    27    59    1
    64    29    60    1
    65    29    61    1
    66    29    62    1
    67    30    63    1
    68    30    64    1
    69    30    65    1
    70    34    66    1
    71    35    67    1
    72    68     1    1
    73    68    33    1
    74    68    18    1
    75    68    11    1
@<TRIPOS>MOLECULE
*****
 68 75 0 0 0
SMALL
GASTEIGER

@<TRIPOS>ATOM
      1 O          -0.1057   -0.2436   -0.9910 O.2     1  UNL1        0.0000
      2 C          -1.3016    0.6040   -0.6211 C.2     1  UNL1        0.0000
      3 N          -0.8949   -1.5488    3.0219 N.am    1  UNL1        0.0000
      4 C          -2.6587   -1.8076    2.3835 C.3     1  UNL1        0.0000
      5 C           0.3916   -2.2180    3.0922 C.3     1  UNL1        0.0000
      6 C           2.9465   -2.4427    2.3725 C.3     1  UNL1        0.0000
      7 C          -1.6280   -4.1811    0.1552 C.3     1  UNL1        0.0000
      8 C          -0.5131    2.5502    0.5994 C.ar    1  UNL1        0.0000
      9 C           1.2625    0.9297    1.0017 C.ar    1  UNL1        0.0000
     10 C          -0.4866   -0.4077   -4.2830 C.ar    1  UNL1        0.0000
     11 N           0.6203    2.7628   -1.1190 N.ar    1  UNL1        0.0000
     12 C           1.6019    2.3392   -2.2791 C.ar    1  UNL1        0.0000
     13 C          -1.5868    0.2976   -3.7378 C.ar    1  UNL1        0.0000
     14 C          -0.2617   -2.8028   -0.0414 C.ar    1  UNL1        0.0000
     15 C          -0.3568   -2.8161   -0.0465 C.ar    1  UNL1        0.0000
     16 C           0.2515   -1.2486   -2.6092 C.ar    1  UNL1        0.0000
     17 C           2.4878   -1.1371   -1.9106 C.ar    1  UNL1        0.0000
     18 N           1.2815   -0.6508    0.5617 N.ar    1  UNL1        0.0000
     19 C          -0.3813   -0.8868    0.9328 C.ar    1  UNL1        0.0000
     20 C          -1.2547   -0.8424    1.6475 C.ar    1  UNL1        0.0000
     21 N          -2.9618    0.8015   -0.5810 N.ar    1  UNL1        0.0000
     22 C          -1.3182   -0.2196   -2.0784 C.ar    1  UNL1        0.0000
     23 C          -0.7458   -4.3857   -2.0042 C.3     1  UNL1        0.0000
     24 C          -1.4996    1.0596    0.9150 C.3     1  UNL1        0.0000
     25 C           0.4145    1.3041   -2.4622 C.3     1  UNL1        0.0000
     26 C          -1.5747    0.9627    0.9208 C.3     1  UNL1        0.0000
     27 C          -2.7969   -0.3124    0.6005 C.3     1  UNL1        0.0000
     28 C           2.5887    0.4440    1.9470 C.3     1  UNL1        0.0000
     29 C           1.5620    0.9436    2.5737 C.3     1  UNL1        0.0000
     30 C          -3.0263   -2.5739    0.8983 C.3     1  UNL1        0.0000
     31 C          -1.0435    0.6849   -2.2260 C.ar    1  UNL1        0.0000
     32 N          -2.5293    3.4361    0.0938 N.ar    1  UNL1        0.0000
     33 N           0.1866    1.9930    2.4367 N.ar    1  UNL1        0.0000
     34 C          -0.3251   -0.1444    1.1279 C.ar    1  UNL1        0.0000
     35 C           0.2000    1.4321   -0.2421 C.ar    1  UNL1        0.0000
     36 H          -1.7950    0.4892    2.3726 H       1  UNL1        0.0000
     37 H          -1.0433   -4.2720    2.7160 H       1  UNL1        0.0000
     38 H          -0.3372    1.0746    3.3826 H       1  UNL1        0.0000
     39 H           0.0399   -2.9094   -1.9285 H       1  UNL1        0.0000
     40 H          -2.3944   -0.4702    2.8462 H       1  UNL1        0.0000
     41 H           3.5908   -1.5275    2.7001 H       1  UNL1        0.0000
     42 H          -2.8581   -1.0084   -1.6592 H       1  UNL1        0.0000
     43 H          -0.4089    1.5176   -4.4369 H       1  UNL1        0.0000
     44 H           2.4694    1.0931   -1.0188 H       1  UNL1        0.0000
     45 H           1.4069   -1.9681    0.5204 H       1  UNL1        0.0000
     46 H          -0.7342   -0.1899    3.3250 H       1  UNL1        0.0000
     47 H           0.2599   -3.2903   -3.1900 H       1  UNL1        0.0000
     48 H           3.9479   -1.5409   -2.0906 H       1  UNL1        0.0000
     49 H          -0.2383    1.1804    4.9011 H       1  UNL1        0.0000
     50 H          -0.9826   -3.0074    1.3430 H       1  UNL1        0.0000
     51 H          -1.1492   -1.8850   -1.7384 H       1  UNL1        0.0000
     52 H          -0.7110    3.3161   -1.0404 H       1  UNL1        0.0000
     53 H           1.4572   -3.4798   -2.5348 H       1  UNL1        0.0000
     54 H          -1.1606    2.1448   -1.2398 H       1  UNL1        0.0000
     55 H           0.8346   -1.8314   -0.6077 H       1  UNL1        0.0000
     56 H           2.9565    0.4394    0.1104 H       1  UNL1        0.0000
     57 H           1.3519   -2.7000   -3.6280 H       1  UNL1        0.0000
     58 H          -1.3567   -1.8157   -3.8157 H       1  UNL1        0.0000
     59 H           0.8801   -0.4216    2.6526 H       1  UNL1        0.0000
     60 H          -2.8749    2.2199   -0.5473 H       1  UNL1        0.0000
     61 H           1.1760    0.1696   -3.8839 H       1  UNL1        0.0000
     62 H           2.0278    1.8648   -5.0274 H       1  UNL1        0.0000
     63 H           0.9379    3.7542   -0.2053 H       1  UNL1        0.0000
     64 H           2.8570   -0.6056   -0.5779 H       1  UNL1        0.0000
     65 H          -2.2479   -2.9774    1.3343 H       1  UNL1        0.0000
     66 H          -2.3634    1.6673    1.9046 H       1  UNL1        0.0000
     67 H           2.8240    1.9612    1.6062 H       1  UNL1        0.0000
     68 EU          1.6475    1.4943   -0.1879 Eu      1  UNL1        0.0000
@<TRIPOS>BOND
     1     1     2    2
     2     2     3   am
     3     3     4    1
     4     3     5    1
     5     5     6    1
     6     6     7    1
     7     2     8    1
     8     8     9   ar
     9     9    10   ar
    10     8    11   ar
    11    11    12   ar
    12    12    13   ar
    13    10    13   ar
    14    13    14   ar
    15    14    15   ar
    16    15    16   ar
    17    16    17   ar
    18    12    17   ar
    19    17    18   ar
    20    18    19   ar
    21    19    20    1
    22    20    21   ar
    23    21    22   ar
    24    22    23    1
    25    23    24    1
    26    23    25    1
    27    23    26    1
    28    26    27    1
    29    27    28    1
    30    28    29    1
    31    28    30    1
    32    22    31   ar
    33    28    31    1
    34    31    32   ar
    35    32    33   ar
    36    20    33   ar
    37    19    34   ar
    38    34    35   ar
    39    16    35   ar
    40     4    36    1
    41     4    37    1
    42     4    38    1
    43     5    39    1
    44     5    40    1
    45     6    41    1
    46     6    42    1
    47     7    43    1
    48     7    44    1
    49     7    45    1
    50     9    46    1
    51    10    47    1
    52    14    48    1
    53    15    49    1
    54    24    50    1
    55    24    51    1
    56    24    52    1
    57    25    53    1
    58    25    54    1
    59    25    55    1
    60    26    56    1
    61    26    57    1
    62    27    58    1
    63    27    59    1
    64    29    60    1
    65    29    61    1
    66    29    62    1
    67    30    63    1
    68    30    64    1
    69    30    65    1
    70    34    66    1
    71    35    67    1
    72    68     1    1
    73    68    33    1
    74    68    18    1
    75    68    11    1
@<TRIPOS>MOLECULE
*****
 68 75 0 0 0
SMALL
GASTEIGER

@<TRIPOS>ATOM
      1 O          -0.1057   -0.2436   -0.9910 O.2     1  UNL1        0.0000
      2 C          -1.3016    0.6040   -0.6211 C.2     1  UNL1        0.0000
      3 N          -0.8949   -1.5488    3.0219 N.am    1  UNL1        0.0000
      4 C          -2.6587   -1.8076    2.3835 C.3     1  UNL1        0.0000
      5 C           0.3916   -2.2180    3.0922 C.3     1  UNL1        0.0000
      6 C           2.9465   -2.4427    2.3725 C.3     1  UNL1        0.0000
      7 C          -1.6280   -4.1811    0.1552 C.3     1  UNL1        0.0000
      8 C          -0.5131    2.5502    0.5994 C.ar    1  UNL1        0.0000
      9 C           1.2625    0.9297    1.0017 C.ar    1  UNL1        0.0000
     10 C          -0.4866   -0.4077   -4.2830 C.ar    1  UNL1        0.0000
     11 N           0.6203    2.7628   -1.1190 N.ar    1  UNL1        0.0000
     12 C           1.6019    2.3392   -2.2791 C.ar    1  UNL1        0.0000
     13 C          -1.5868    0.2976   -3.7378 C.ar    1  UNL1        0.0000
     14 C          -0.2617   -2.8028   -0.0414 C.ar    1  UNL1        0.0000
     15 C          -0.3568   -2.8161   -0.0465 C.ar    1  UNL1        0.0000
     16 C           0.2515   -1.2486   -2.6092 C.ar    1  UNL1        0.0000
     17 C           2.4878   -1.1371   -1.9106 C.ar    1  UNL1        0.0000
     18 N           1.2815   -0.6508    0.5617 N.ar    1  UNL1        0.0000
     19 C          -0.3813   -0.8868    0.9328 C.ar    1  UNL1        0.0000
     20 C          -1.2547   -0.8424    1.6475 C.ar    1  UNL1        0.0000
     21 N          -2.9618    0.8015   -0.5810 N.ar    1  UNL1        0.0000
     22 C          -1.3182   -0.2196   -2.0784 C.ar    1  UNL1        0.0000
     23 C          -0.7458   -4.3857   -2.0042 C.3     1  UNL1        0.0000
     24 C          -1.4996    1.0596    0.9150 C.3     1  UNL1        0.0000
     25 C           0.4145    1.3041   -2.4622 C.3     1  UNL1        0.0000
     26 C          -1.5747    0.9627    0.9208 C.3     1  UNL1        0.0000
     27 C          -2.7969   -0.3124    0.6005 C.3     1  UNL1        0.0000
     28 C           2.5887    0.4440    1.9470 C.3     1  UNL1        0.0000
     29 C           1.5620    0.9436    2.5737 C.3     1  UNL1        0.0000
     30 C          -3.0263   -2.5739    0.8983 C.3     1  UNL1        0.0000
     31 C          -1.0435    0.6849   -2.2260 C.ar    1  UNL1        0.0000
     32 N          -2.5293    3.4361    0.0938 N.ar    1  UNL1        0.0000
     33 N           0.1866    1.9930    2.4367 N.ar    1  UNL1        0.0000
     34 C          -0.3251   -0.1444    1.1279 C.ar    1  UNL1        0.0000
     35 C           0.2000    1.4321   -0.2421 C.ar    1  UNL1        0.0000
     36 H          -1.7950    0.4892    2.3726 H       1  UNL1        0.0000
     37 H          -1.0433   -4.2720    2.7160 H       1  UNL1        0.0000
     38 H          -0.3372    1.0746    3.3826 H       1  UNL1        0.0000
     39 H           0.0399   -2.9094   -1.9285 H       1  UNL1        0.0000
     40 H          -2.3944   -0.4702    2.8462 H       1  UNL1        0.0000
     41 H           3.5908   -1.5275    2.7001 H       1  UNL1        0.0000
     42 H          -2.8581   -1.0084   -1.6592 H       1  UNL1        0.0000
     43 H          -0.4089    1.5176   -4.4369 H       1  UNL1        0.0000
     44 H           2.4694    1.0931   -1.0188 H       1  UNL1        0.0000
     45 H           1.4069   -1.9681    0.5204 H       1  UNL1        0.0000
     46 H          -0.7342   -0.1899    3.3250 H       1  UNL1        0.0000
     47 H           0.2599   -3.2903   -3.1900 H       1  UNL1        0.0000
     48 H           3.9479   -1.5409   -2.0906 H       1  UNL1        0.0000
     49 H          -0.2383    1.1804    4.9011 H       1  UNL1        0.0000
     50 H          -0.9826   -3.0074    1.3430 H       1  UNL1        0.0000
     51 H          -1.1492   -1.8850   -1.7384 H       1  UNL1        0.0000
     52 H          -0.7110    3.3161   -1.0404 H       1  UNL1        0.0000
     53 H           1.4572   -3.4798   -2.5348 H       1  UNL1        0.0000
     54 H          -1.1606    2.1448   -1.2398 H       1  UNL1        0.0000
     55 H           0.8346   -1.8314   -0.6077 H       1  UNL1        0.0000
     56 H           2.9565    0.4394    0.1104 H       1  UNL1        0.0000
     57 H           1.3519   -2.7000   -3.6280 H       1  UNL1        0.0000
     58 H          -1.3567   -1.8157   -3.8157 H       1  UNL1        0.0000
     59 H           0.8801   -0.4216    2.6526 H       1  UNL1        0.0000
     60 H          -2.8749    2.2199   -0.5473 H       1  UNL1        0.0000
     61 H           1.1760    0.1696   -3.8839 H       1  UNL1        0.0000
     62 H           2.0278    1.8648   -5.0274 H       1  UNL1        0.0000
     63 H           0.9379    3.7542   -0.2053 H       1  UNL1        0.0000
     64 H           2.8570   -0.6056   -0.5779 H       1  UNL1        0.0000
     65 H          -2.2479   -2.9774    1.3343 H       1  UNL1        0.0000
     66 H          -2.3634    1.6673    1.9046 H       1  UNL1        0.0000
     67 H           2.8240    1.9612    1.6062 H       1  UNL1        0.0000
     68 EU          1.6475    1.4943   -0.1879 Eu      1  UNL1        0.0000
@<TRIPOS>BOND
     1     1     2    2
     2     2     3   am
     3     3     4    1
     4     3     5    1
     5     5     6    1
     6     6     7    1
     7     2     8    1
     8     8     9   ar
     9     9    10   ar
    10     8    11   ar
    11    11    12   ar
    12    12    13   ar
    13    10    13   ar
    14    13    14   ar
    15    14    15   ar
    16    15    16   ar
    17    16    17   ar
    18    12    17   ar
    19    17    18   ar
    20    18    19   ar
    21    19    20    1
    22    20    21   ar
    23    21    22   ar
    24    22    23    1
    25    23    24    1
    26    23    25    1
    27    23    26    1
    28    26    27    1
    29    27    28    1
    30    28    29    1
    31    28    30    1
    32    22    31   ar
    33    28    31    1
    34    31    32   ar
    35    32    33   ar
    36    20    33   ar
    37    19    34   ar
    38    34    35   ar
    39    16    35   ar
    40     4    36    1
    41     4    37    1
    42     4    38    1
    43     5    39    1
    44     5    40    1
    45     6    41    1
    46     6    42    1
    47     7    43    1
    48     7    44    1
    49     7    45    1
    50     9    46    1
    51    10    47    1
    52    14    48    1
    53    15    49    1
    54    24    50    1
    55    24    51    1
    56    24    52    1
    57    25    53    1
    58    25    54    1
    59    25    55    1
    60    26    56    1
    61    26    57    1
    62    27    58    1
    63    27    59    1
    64    29    60    1
    65    29    61    1
    66    29    62    1
    67    30    63    1
    68    30    64    1
    69    30    65    1
    70    34    66    1
    71    35    67    1
    72    68     1    1
    73    68    33    1
    74    68    18    1
    75    68    11    1
@<TRIPOS>MOLECULE
*****
 68 75 0 0 0
SMALL
GASTEIGER

@<TRIPOS>ATOM
      1 O          -0.1057   -0.2436   -0.9910 O.2     1  UNL1        0.0000
      2 C          -1.3016    0.6040   -0.6211 C.2     1  UNL1        0.0000
      3 N          -0.8949   -1.5488    3.0219 N.am    1  UNL1        0.0000
      4 C          -2.6587   -1.8076    2.3835 C.3     1  UNL1        0.0000
      5 C           0.3916   -2.2180    3.0922 C.3     1  UNL1        0.0000
      6 C           2.9465   -2.4427    2.3725 C.3     1  UNL1        0.0000
      7 C          -1.6280   -4.1811    0.1552 C.3     1  UNL1        0.0000
      8 C          -0.5131    2.5502    0.5994 C.ar    1  UNL1        0.0000
      9 C           1.2625    0.9297    1.0017 C.ar    1  UNL1        0.0000
     10 C          -0.4866   -0.4077   -4.2830 C.ar    1  UNL1        0.0000
     11 N           0.6203    2.7628   -1.1190 N.ar    1  UNL1        0.0000
     12 C           1.6019    2.3392   -2.2791 C.ar    1  UNL1        0.0000
     13 C          -1.5868    0.2976   -3.7378 C.ar    1  UNL1        0.0000
     14 C          -0.2617   -2.8028   -0.0414 C.ar    1  UNL1        0.0000
     15 C          -0.3568   -2.8161   -0.0465 C.ar    1  UNL1        0.0000
     16 C           0.2515   -1.2486   -2.6092 C.ar    1  UNL1        0.0000
     17 C           2.4878   -1.1371   -1.9106 C.ar    1  UNL1        0.0000
     18 N           1.2815   -0.6508    0.5617 N.ar    1  UNL1        0.0000
     19 C          -0.3813   -0.8868    0.9328 C.ar    1  UNL1        0.0000
     20 C          -1.2547   -0.8424    1.6475 C.ar    1  UNL1        0.0000
     21 N          -2.9618    0.8015   -0.5810 N.ar    1  UNL1        0.0000
     22 C          -1.3182   -0.2196   -2.0784 C.ar    1  UNL1        0.0000
     23 C          -0.7458   -4.3857   -2.0042 C.3     1  UNL1        0.0000
     24 C          -1.4996    1.0596    0.9150 C.3     1  UNL1        0.0000
     25 C           0.4145    1.3041   -2.4622 C.3     1  UNL1        0.0000
     26 C          -1.5747    0.9627    0.9208 C.3     1  UNL1        0.0000
     27 C          -2.7969   -0.3124    0.6005 C.3     1  UNL1        0.0000
     28 C           2.5887    0.4440    1.9470 C.3     1  UNL1        0.0000
     29 C           1.5620    0.9436    2.5737 C.3     1  UNL1        0.0000
     30 C          -3.0263   -2.5739    0.8983 C.3     1  UNL1        0.0000
     31 C          -1.0435    0.6849   -2.2260 C.ar    1  UNL1        0.0000
     32 N          -2.5293    3.4361    0.0938 N.ar    1  UNL1        0.0000
     33 N           0.1866    1.9930    2.4367 N.ar    1  UNL1        0.0000
     34 C          -0.3251   -0.1444    1.1279 C.ar    1  UNL1        0.0000
     35 C           0.2000    1.4321   -0.2421 C.ar    1  UNL1        0.0000
     36 H          -1.7950    0.4892    2.3726 H       1  UNL1        0.0000
     37 H          -1.0433   -4.2720    2.7160 H       1  UNL1        0.0000
     38 H          -0.3372    1.0746    3.3826 H       1  UNL1        0.0000
     39 H           0.0399   -2.9094   -1.9285 H       1  UNL1        0.0000
     40 H          -2.3944   -0.4702    2.8462 H       1  UNL1        0.0000
     41 H           3.5908   -1.5275    2.7001 H       1  UNL1        0.0000
     42 H          -2.8581   -1.0084   -1.6592 H       1  UNL1        0.0000
     43 H          -0.4089    1.5176   -4.4369 H       1  UNL1        0.0000
     44 H           2.4694    1.0931   -1.0188 H       1  UNL1        0.0000
     45 H           1.4069   -1.9681    0.5204 H       1  UNL1        0.0000
     46 H          -0.7342   -0.1899    3.3250 H       1  UNL1        0.0000
     47 H           0.2599   -3.2903   -3.1900 H       1  UNL1        0.0000
     48 H           3.9479   -1.5409   -2.0906 H       1  UNL1        0.0000
     49 H          -0.2383    1.1804    4.9011 H       1  UNL1        0.0000
     50 H          -0.9826   -3.0074    1.3430 H       1  UNL1        0.0000
     51 H          -1.1492   -1.8850   -1.7384 H       1  UNL1        0.0000
     52 H          -0.7110    3.3161   -1.0404 H       1  UNL1        0.0000
     53 H           1.4572   -3.4798   -2.5348 H       1  UNL1        0.0000
     54 H          -1.1606    2.1448   -1.2398 H       1  UNL1        0.0000
     55 H           0.8346   -1.8314   -0.6077 H       1  UNL1        0.0000
     56 H           2.9565    0.4394    0.1104 H       1  UNL1        0.0000
     57 H           1.3519   -2.7000   -3.6280 H       1  UNL1        0.0000
     58 H          -1.3567   -1.8157   -3.8157 H       1  UNL1        0.0000
     59 H           0.8801   -0.4216    2.6526 H       1  UNL1        0.0000
     60 H          -2.8749    2.2199   -0.5473 H       1  UNL1        0.0000
     61 H           1.1760    0.1696   -3.8839 H       1  UNL1        0.0000
     62 H           2.0278    1.8648   -5.0274 H       1  UNL1        0.0000
     63 H           0.9379    3.7542   -0.2053 H       1  UNL1        0.0000
     64 H           2.8570   -0.6056   -0.5779 H       1  UNL1        0.0000
     65 H          -2.2479   -2.9774    1.3343 H       1  UNL1        0.0000
     66 H          -2.3634    1.6673    1.9046 H       1  UNL1        0.0000
     67 H           2.8240    1.9612    1.6062 H       1  UNL1        0.0000
     68 EU          1.6475    1.4943   -0.1879 Eu      1  UNL1        0.0000
@<TRIPOS>BOND
     1     1     2    2
     2     2     3   am
     3     3     4    1
     4     3     5    1
     5     5     6    1
     6     6     7    1
     7     2     8    1
     8     8     9   ar
     9     9    10   ar
    10     8    11   ar
    11    11    12   ar
    12    12    13   ar
    13    10    13   ar
    14    13    14   ar
    15    14    15   ar
    16    15    16   ar
    17    16    17   ar
    18    12    17   ar
    19    17    18   ar
    20    18    19   ar
    21    19    20    1
    22    20    21   ar
    23    21    22   ar
    24    22    23    1
    25    23    24    1
    26    23    25    1
    27    23    26    1
    28    26    27    1
    29    27    28    1
    30    28    29    1
    31    28    30    1
    32    22    31   ar
    33    28    31    1
    34    31    32   ar
    35    32    33   ar
    36    20    33   ar
    37    19    34   ar
    38    34    35   ar
    39    16    35   ar
    40     4    36    1
    41     4    37    1
    42     4    38    1
    43     5    39    1
    44     5    40    1
    45     6    41    1
    46     6    42    1
    47     7    43    1
    48     7    44    1
    49     7    45    1
    50     9    46    1
    51    10    47    1
    52    14    48    1
    53    15    49    1
    54    24    50    1
    55    24    51    1
    56    24    52    1
    57    25    53    1
    58    25    54    1
    59    25    55    1
    60    26    56    1
    61    26    57    1
    62    27    58    1
    63    27    59    1
    64    29    60    1
    65    29    61    1
    66    29    62    1
    67    30    63    1
    68    30    64    1
    69    30    65    1
    70    34    66    1
    71    35    67    1
    72    68     1    1
    73    68    33    1
    74    68    18    1
    75    68    11    1
@<TRIPOS>MOLECULE
*****
 68 75 0 0 0
SMALL
GASTEIGER

@<TRIPOS>ATOM
      1 O          -0.1057   -0.2436   -0.9910 O.2     1  UNL1        0.0000
      2 C          -1.3016    0.6040   -0.6211 C.2     1  UNL1        0.0000
      3 N          -0.8949   -1.5488    3.0219 N.am    1  UNL1        0.0000
      4 C          -2.6587   -1.8076    2.3835 C.3     1  UNL1        0.0000
      5 C           0.3916   -2.2180    3.0922 C.3     1  UNL1        0.0000
      6 C           2.9465   -2.4427    2.3725 C.3     1  UNL1        0.0000
      7 C          -1.6280   -4.1811    0.1552 C.3     1  UNL1        0.0000
      8 C          -0.5131    2.5502    0.5994 C.ar    1  UNL1        0.0000
      9 C           1.2625    0.9297    1.0017 C.ar    1  UNL1        0.0000
     10 C          -0.4866   -0.4077   -4.2830 C.ar    1  UNL1        0.0000
     11 N           0.6203    2.7628   -1.1190 N.ar    1  UNL1        0.0000
     12 C           1.6019    2.3392   -2.2791 C.ar    1  UNL1        0.0000
     13 C          -1.5868    0.2976   -3.7378 C.ar    1  UNL1        0.0000
     14 C          -0.2617   -2.8028   -0.0414 C.ar    1  UNL1        0.0000
     15 C          -0.3568   -2.8161   -0.0465 C.ar    1  UNL1        0.0000
     16 C           0.2515   -1.2486   -2.6092 C.ar    1  UNL1        0.0000
     17 C           2.4878   -1.1371   -1.9106 C.ar    1  UNL1        0.0000
     18 N           1.2815   -0.6508    0.5617 N.ar    1  UNL1        0.0000
     19 C          -0.3813   -0.8868    0.9328 C.ar    1  UNL1        0.0000
     20 C          -1.2547   -0.8424    1.6475 C.ar    1  UNL1        0.0000
     21 N          -2.9618    0.8015   -0.5810 N.ar    1  UNL1        0.0000
     22 C          -1.3182   -0.2196   -2.0784 C.ar    1  UNL1        0.0000
     23 C          -0.7458   -4.3857   -2.0042 C.3     1  UNL1        0.0000
     24 C          -1.4996    1.0596    0.9150 C.3     1  UNL1        0.0000
     25 C           0.4145    1.3041   -2.4622 C.3     1  UNL1        0.0000
     26 C          -1.5747    0.9627    0.9208 C.3     1  UNL1        0.0000
     27 C          -2.7969   -0.3124    0.6005 C.3     1  UNL1        0.0000
     28 C           2.5887    0.4440    1.9470 C.3     1  UNL1        0.0000
     29 C           1.5620    0.9436    2.5737 C.3     1  UNL1        0.0000
     30 C          -3.0263   -2.5739    0.8983 C.3     1  UNL1        0.0000
     31 C          -1.0435    0.6849   -2.2260 C.ar    1  UNL1        0.0000
     32 N          -2.5293    3.4361    0.0938 N.ar    1  UNL1        0.0000
     33 N           0.1866    1.9930    2.4367 N.ar    1  UNL1        0.0000
     34 C          -0.3251   -0.1444    1.1279 C.ar    1  UNL1        0.0000
     35 C           0.2000    1.4321   -0.2421 C.ar    1  UNL1        0.0000
     36 H          -1.7950    0.4892    2.3726 H       1  UNL1        0.0000
     37 H          -1.0433   -4.2720    2.7160 H       1  UNL1        0.0000
     38 H          -0.3372    1.0746    3.3826 H       1  UNL1        0.0000
     39 H           0.0399   -2.9094   -1.9285 H       1  UNL1        0.0000
     40 H          -2.3944   -0.4702    2.8462 H       1  UNL1        0.0000
     41 H           3.5908   -1.5275    2.7001 H       1  UNL1        0.0000
     42 H          -2.8581   -1.0084   -1.6592 H       1  UNL1        0.0000
     43 H          -0.4089    1.5176   -4.4369 H       1  UNL1        0.0000
     44 H           2.4694    1.0931   -1.0188 H       1  UNL1        0.0000
     45 H           1.4069   -1.9681    0.5204 H       1  UNL1        0.0000
     46 H          -0.7342   -0.1899    3.3250 H       1  UNL1        0.0000
     47 H           0.2599   -3.2903   -3.1900 H       1  UNL1        0.0000
     48 H           3.9479   -1.5409   -2.0906 H       1  UNL1        0.0000
     49 H          -0.2383    1.1804    4.9011 H       1  UNL1        0.0000
     50 H          -0.9826   -3.0074    1.3430 H       1  UNL1        0.0000
     51 H          -1.1492   -1.8850   -1.7384 H       1  UNL1        0.0000
     52 H          -0.7110    3.3161   -1.0404 H       1  UNL1        0.0000
     53 H           1.4572   -3.4798   -2.5348 H       1  UNL1        0.0000
     54 H          -1.1606    2.1448   -1.2398 H       1  UNL1        0.0000
     55 H           0.8346   -1.8314   -0.6077 H       1  UNL1        0.0000
     56 H           2.9565    0.4394    0.1104 H       1  UNL1        0.0000
     57 H           1.3519   -2.7000   -3.6280 H       1  UNL1        0.0000
     58 H          -1.3567   -1.8157   -3.8157 H       1  UNL1        0.0000
     59 H           0.8801   -0.4216    2.6526 H       1  UNL1        0.0000
     60 H          -2.8749    2.2199   -0.5473 H       1  UNL1        0.0000
     61 H           1.1760    0.1696   -3.8839 H       1  UNL1        0.0000
     62 H           2.0278    1.8648   -5.0274 H       1  UNL1        0.0000
     63 H           0.9379    3.7542   -0.2053 H       1  UNL1        0.0000
     64 H           2.8570   -0.6056   -0.5779 H       1  UNL1        0.0000
     65 H          -2.2479   -2.9774    1.3343 H       1  UNL1        0.0000
     66 H          -2.3634    1.6673    1.9046 H       1  UNL1        0.0000
     67 H           2.8240    1.9612    1.6062 H       1  UNL1        0.0000
     68 EU          1.6475    1.4943   -0.1879 Eu      1  UNL1        0.0000
@<TRIPOS>BOND
     1     1     2    2
     2     2     3   am
     3     3     4    1
     4     3     5    1
     5     5     6    1
     6     6     7    1
     7     2     8    1
     8     8     9   ar
     9     9    10   ar
    10     8    11   ar
    11    11    12   ar
    12    12    13   ar
    13    10    13   ar
    14    13    14   ar
    15    14    15   ar
    16    15    16   ar
    17    16    17   ar
    18    12    17   ar
    19    17    18   ar
    20    18    19   ar
    21    19    20    1
    22    20    21   ar
    23    21    22   ar
    24    22    23    1
    25    23    24    1
    26    23    25    1
    27    23    26    1
    28    26    27    1
    29    27    28    1
    30    28    29    1
    31    28    30    1
    32    22    31   ar
    33    28    31    1
    34    31    32   ar
    35    32    33   ar
    36    20    33   ar
    37    19    34   ar
    38    34    35   ar
    39    16    35   ar
    40     4    36    1
    41     4    37    1
    42     4    38    1
    43     5    39    1
    44     5    40    1
    45     6    41    1
    46     6    42    1
    47     7    43    1
    48     7    44    1
    49     7    45    1
    50     9    46    1
    51    10    47    1
    52    14    48    1
    53    15    49    1
    54    24    50    1
    55    24    51    1
    56    24    52    1
    57    25    53    1
    58    25    54    1
    59    25    55    1
    60    26    56    1
    61    26    57    1
    62    27    58    1
    63    27    59    1
    64    29    60    1
    65    29    61    1
    66    29    62    1
    67    30    63    1
    68    30    64    1
    69    30    65    1
    70    34    66    1
    71    35    67    1
    72    68     1    1
    73    68    33    1
    74    68    18    1
    75    68    11    1
@<TRIPOS>MOLECULE
*****
 68 75 0 0 0
SMALL
GASTEIGER

@<TRIPOS>ATOM
      1 O          -0.1057   -0.2436   -0.9910 O.2     1  UNL1        0.0000
      2 C          -1.3016    0.6040   -0.6211 C.2     1  UNL1        0.0000
      3 N          -0.8949   -1.5488    3.0219 N.am    1  UNL1        0.0000
      4 C          -2.6587   -1.8076    2.3835 C.3     1  UNL1        0.0000
      5 C           0.3916   -2.2180    3.0922 C.3     1  UNL1        0.0000
      6 C           2.9465   -2.4427    2.3725 C.3     1  UNL1        0.0000
      7 C          -1.6280   -4.1811    0.1552 C.3     1  UNL1        0.0000
      8 C          -0.5131    2.5502    0.5994 C.ar    1  UNL1        0.0000
      9 C           1.2625    0.9297    1.0017 C.ar    1  UNL1        0.0000
     10 C          -0.4866   -0.4077   -4.2830 C.ar    1  UNL1        0.0000
     11 N           0.6203    2.7628   -1.1190 N.ar    1  UNL1        0.0000
     12 C           1.6019    2.3392   -2.2791 C.ar    1  UNL1        0.0000
     13 C          -1.5868    0.2976   -3.7378 C.ar    1  UNL1        0.0000
     14 C          -0.2617   -2.8028   -0.0414 C.ar    1  UNL1        0.0000
     15 C          -0.3568   -2.8161   -0.0465 C.ar    1  UNL1        0.0000
     16 C           0.2515   -1.2486   -2.6092 C.ar    1  UNL1        0.0000
     17 C           2.4878   -1.1371   -1.9106 C.ar    1  UNL1        0.0000
     18 N           1.2815   -0.6508    0.5617 N.ar    1  UNL1        0.0000
     19 C          -0.3813   -0.8868    0.9328 C.ar    1  UNL1        0.0000
     20 C          -1.2547   -0.8424    1.6475 C.ar    1  UNL1        0.0000
     21 N          -2.9618    0.8015   -0.5810 N.ar    1  UNL1        0.0000
     22 C          -1.3182   -0.2196   -2.0784 C.ar    1  UNL1        0.0000
     23 C          -0.7458   -4.3857   -2.0042 C.3     1  UNL1        0.0000
     24 C          -1.4996    1.0596    0.9150 C.3     1  UNL1        0.0000
     25 C           0.4145    1.3041   -2.4622 C.3     1  UNL1        0.0000
     26 C          -1.5747    0.9627    0.9208 C.3     1  UNL1        0.0000
     27 C          -2.7969   -0.3124    0.6005 C.3     1  UNL1        0.0000
     28 C           2.5887    0.4440    1.9470 C.3     1  UNL1        0.0000
     29 C           1.5620    0.9436    2.5737 C.3     1  UNL1        0.0000
     30 C          -3.0263   -2.5739    0.8983 C.3     1  UNL1        0.0000
     31 C          -1.0435    0.6849   -2.2260 C.ar    1  UNL1        0.0000
     32 N          -2.5293    3.4361    0.0938 N.ar    1  UNL1        0.0000
     33 N           0.1866    1.9930    2.4367 N.ar    1  UNL1        0.0000
     34 C          -0.3251   -0.1444    1.1279 C.ar    1  UNL1        0.0000
     35 C           0.2000    1.4321   -0.2421 C.ar    1  UNL1        0.0000
     36 H          -1.7950    0.4892    2.3726 H       1  UNL1        0.0000
     37 H          -1.0433   -4.2720    2.7160 H       1  UNL1        0.0000
     38 H          -0.3372    1.0746    3.3826 H       1  UNL1        0.0000
     39 H           0.0399   -2.9094   -1.9285 H       1  UNL1        0.0000
     40 H          -2.3944   -0.4702    2.8462 H       1  UNL1        0.0000
     41 H           3.5908   -1.5275    2.7001 H       1  UNL1        0.0000
     42 H          -2.8581   -1.0084   -1.6592 H       1  UNL1        0.0000
     43 H          -0.4089    1.5176   -4.4369 H       1  UNL1        0.0000
     44 H           2.4694    1.0931   -1.0188 H       1  UNL1        0.0000
     45 H           1.4069   -1.9681    0.5204 H       1  UNL1        0.0000
     46 H          -0.7342   -0.1899    3.3250 H       1  UNL1        0.0000
     47 H           0.2599   -3.2903   -3.1900 H       1  UNL1        0.0000
     48 H           3.9479   -1.5409   -2.0906 H       1  UNL1        0.0000
     49 H          -0.2383    1.1804    4.9011 H       1  UNL1        0.0000
     50 H          -0.9826   -3.0074    1.3430 H       1  UNL1        0.0000
     51 H          -1.1492   -1.8850   -1.7384 H       1  UNL1        0.0000
     52 H          -0.7110    3.3161   -1.0404 H       1  UNL1        0.0000
     53 H           1.4572   -3.4798   -2.5348 H       1  UNL1        0.0000
     54 H          -1.1606    2.1448   -1.2398 H       1  UNL1        0.0000
     55 H           0.8346   -1.8314   -0.6077 H       1  UNL1        0.0000
     56 H           2.9565    0.4394    0.1104 H       1  UNL1        0.0000
     57 H           1.3519   -2.7000   -3.6280 H       1  UNL1        0.0000
     58 H          -1.3567   -1.8157   -3.8157 H       1  UNL1        0.0000
     59 H           0.8801   -0.4216    2.6526 H       1  UNL1        0.0000
     60 H          -2.8749    2.2199   -0.5473 H       1  UNL1        0.0000
     61 H           1.1760    0.1696   -3.8839 H       1  UNL1        0.0000
     62 H           2.0278    1.8648   -5.0274 H       1  UNL1        0.0000
     63 H           0.9379    3.7542   -0.2053 H       1  UNL1        0.0000
     64 H           2.8570   -0.6056   -0.5779 H       1  UNL1        0.0000
     65 H          -2.2479   -2.9774    1.3343 H       1  UNL1        0.0000
     66 H          -2.3634    1.6673    1.9046 H       1  UNL1        0.0000
     67 H           2.8240    1.9612    1.6062 H       1  UNL1        0.0000
     68 EU          1.6475    1.4943   -0.1879 Eu      1  UNL1        0.0000
@<TRIPOS>BOND
     1     1     2    2
     2     2     3   am
     3     3     4    1
     4     3     5    1
     5     5     6    1
     6     6     7    1
     7     2     8    1
     8     8     9   ar
     9     9    10   ar
    10     8    11   ar
    11    11    12   ar
    12    12    13   ar
    13    10    13   ar
    14    13    14   ar
    15    14    15   ar
    16    15    16   ar
    17    16    17   ar
    18    12    17   ar
    19    17    18   ar
    20    18    19   ar
    21    19    20    1
    22    20    21   ar
    23    21    22   ar
    24    22    23    1
    25    23    24    1
    26    23    25    1
    27    23    26    1
    28    26    27    1
    29    27    28    1
    30    28    29    1
    31    28    30    1
    32    22    31   ar
    33    28    31    1
    34    31    32   ar
    35    32    33   ar
    36    20    33   ar
    37    19    34   ar
    38    34    35   ar
    39    16    35   ar
    40     4    36    1
    41     4    37    1
    42     4    38    1
    43     5    39    1
    44     5    40    1
    45     6    41    1
    46     6    42    1
    47     7    43    1
    48     7    44    1
    49     7    45    1
    50     9    46    1
    51    10    47    1
    52    14    48    1
    53    15    49    1
    54    24    50    1
    55    24    51    1
    56    24    52    1
    57    25    53    1
    58    25    54    1
    59    25    55    1
    60    26    56    1
    61    26    57    1
    62    27    58    1
    63    27    59    1
    64    29    60    1
    65    29    61    1
    66    29    62    1
    67    30    63    1
    68    30    64    1
    69    30    65    1
    70    34    66    1
    71    35    67    1
    72    68     1    1
    73    68    33    1
    74    68    18    1
    75    68    11    1
@<TRIPOS>MOLECULE
*****
 68 75 0 0 0
SMALL
GASTEIGER

@<TRIPOS>ATOM
      1 O          -0.1057   -0.2436   -0.9910 O.2     1  UNL1        0.0000
      2 C          -1.3016    0.6040   -0.6211 C.2     1  UNL1        0.0000
      3 N          -0.8949   -1.5488    3.0219 N.am    1  UNL1        0.0000
      4 C          -2.6587   -1.8076    2.3835 C.3     1  UNL1        0.0000
      5 C           0.3916   -2.2180    3.0922 C.3     1  UNL1        0.0000
      6 C           2.9465   -2.4427    2.3725 C.3     1  UNL1        0.0000
      7 C          -1.6280   -4.1811    0.1552 C.3     1  UNL1        0.0000
      8 C          -0.5131    2.5502    0.5994 C.ar    1  UNL1        0.0000
      9 C           1.2625    0.9297    1.0017 C.ar    1  UNL1        0.0000
     10 C          -0.4866   -0.4077   -4.2830 C.ar    1  UNL1        0.0000
     11 N           0.6203    2.7628   -1.1190 N.ar    1  UNL1        0.0000
     12 C           1.6019    2.3392   -2.2791 C.ar    1  UNL1        0.0000
     13 C          -1.5868    0.2976   -3.7378 C.ar    1  UNL1        0.0000
     14 C          -0.2617   -2.8028   -0.0414 C.ar    1  UNL1        0.0000
     15 C          -0.3568   -2.8161   -0.0465 C.ar    1  UNL1        0.0000
     16 C           0.2515   -1.2486   -2.6092 C.ar    1  UNL1        0.0000
     17 C           2.4878   -1.1371   -1.9106 C.ar    1  UNL1        0.0000
     18 N           1.2815   -0.6508    0.5617 N.ar    1  UNL1        0.0000
     19 C          -0.3813   -0.8868    0.9328 C.ar    1  UNL1        0.0000
     20 C          -1.2547   -0.8424    1.6475 C.ar    1  UNL1        0.0000
     21 N          -2.9618    0.8015   -0.5810 N.ar    1  UNL1        0.0000
     22 C          -1.3182   -0.2196   -2.0784 C.ar    1  UNL1        0.0000
     23 C          -0.7458   -4.3857   -2.0042 C.3     1  UNL1        0.0000
     24 C          -1.4996    1.0596    0.9150 C.3     1  UNL1        0.0000
     25 C           0.4145    1.3041   -2.4622 C.3     1  UNL1        0.0000
     26 C          -1.5747    0.9627    0.9208 C.3     1  UNL1        0.0000
     27 C          -2.7969   -0.3124    0.6005 C.3     1  UNL1        0.0000
     28 C           2.5887    0.4440    1.9470 C.3     1  UNL1        0.0000
     29 C           1.5620    0.9436    2.5737 C.3     1  UNL1        0.0000
     30 C          -3.0263   -2.5739    0.8983 C.3     1  UNL1        0.0000
     31 C          -1.0435    0.6849   -2.2260 C.ar    1  UNL1        0.0000
     32 N          -2.5293    3.4361    0.0938 N.ar    1  UNL1        0.0000
     33 N           0.1866    1.9930    2.4367 N.ar    1  UNL1        0.0000
     34 C          -0.3251   -0.1444    1.1279 C.ar    1  UNL1        0.0000
     35 C           0.2000    1.4321   -0.2421 C.ar    1  UNL1        0.0000
     36 H          -1.7950    0.4892    2.3726 H       1  UNL1        0.0000
     37 H          -1.0433   -4.2720    2.7160 H       1  UNL1        0.0000
     38 H          -0.3372    1.0746    3.3826 H       1  UNL1        0.0000
     39 H           0.0399   -2.9094   -1.9285 H       1  UNL1        0.0000
     40 H          -2.3944   -0.4702    2.8462 H       1  UNL1        0.0000
     41 H           3.5908   -1.5275    2.7001 H       1  UNL1        0.0000
     42 H          -2.8581   -1.0084   -1.6592 H       1  UNL1        0.0000
     43 H          -0.4089    1.5176   -4.4369 H       1  UNL1        0.0000
     44 H           2.4694    1.0931   -1.0188 H       1  UNL1        0.0000
     45 H           1.4069   -1.9681    0.5204 H       1  UNL1        0.0000
     46 H          -0.7342   -0.1899    3.3250 H       1  UNL1        0.0000
     47 H           0.2599   -3.2903   -3.1900 H       1  UNL1        0.0000
     48 H           3.9479   -1.5409   -2.0906 H       1  UNL1        0.0000
     49 H          -0.2383    1.1804    4.9011 H       1  UNL1        0.0000
     50 H          -0.9826   -3.0074    1.3430 H       1  UNL1        0.0000
     51 H          -1.1492   -1.8850   -1.7384 H       1  UNL1        0.0000
     52 H          -0.7110    3.3161   -1.0404 H       1  UNL1        0.0000
     53 H           1.4572   -3.4798   -2.5348 H       1  UNL1        0.0000
     54 H          -1.1606    2.1448   -1.2398 H       1  UNL1        0.0000
     55 H           0.8346   -1.8314   -0.6077 H       1  UNL1        0.0000
     56 H           2.9565    0.4394    0.1104 H       1  UNL1        0.0000
     57 H           1.3519   -2.7000   -3.6280 H       1  UNL1        0.0000
     58 H          -1.3567   -1.8157   -3.8157 H       1  UNL1        0.0000
     59 H           0.8801   -0.4216    2.6526 H       1  UNL1        0.0000
     60 H          -2.8749    2.2199   -0.5473 H       1  UNL1        0.0000
     61 H           1.1760    0.1696   -3.8839 H       1  UNL1        0.0000
     62 H           2.0278    1.8648   -5.0274 H       1  UNL1        0.0000
     63 H           0.9379    3.7542   -0.2053 H       1  UNL1        0.0000
     64 H           2.8570   -0.6056   -0.5779 H       1  UNL1        0.0000
     65 H          -2.2479   -2.9774    1.3343 H       1  UNL1        0.0000
     66 H          -2.3634    1.6673    1.9046 H       1  UNL1        0.0000
     67 H           2.8240    1.9612    1.6062 H       1  UNL1        0.0000
     68 EU          1.6475    1.4943   -0.1879 Eu      1  UNL1        0.0000
@<TRIPOS>BOND
     1     1     2    2
     2     2     3   am
     3     3     4    1
     4     3     5    1
     5     5     6    1
     6     6     7    1
     7     2     8    1
     8     8     9   ar
     9     9    10   ar
    10     8    11   ar
    11    11    12   ar
    12    12    13   ar
    13    10    13   ar
    14    13    14   ar
    15    14    15   ar
    16    15    16   ar
    17    16    17   ar
    18    12    17   ar
    19    17    18   ar
    20    18    19   ar
    21    19    20    1
    22    20    21   ar
    23    21    22   ar
    24    22    23    1
    25    23    24    1
    26    23    25    1
    27    23    26    1
    28    26    27    1
    29    27    28    1
    30    28    29    1
    31    28    30    1
    32    22    31   ar
    33    28    31    1
    34    31    32   ar
    35    32    33   ar
    36    20    33   ar
    37    19    34   ar
    38    34    35   ar
    39    16    35   ar
    40     4    36    1
    41     4    37    1
    42     4    38    1
    43     5    39    1
    44     5    40    1
    45     6    41    1
    46     6    42    1
    47     7    43    1
    48     7    44    1
    49     7    45    1
    50     9    46    1
    51    10    47    1
    52    14    48    1
    53    15    49    1
    54    24    50    1
    55    24    51    1
    56    24    52    1
    57    25    53    1
    58    25    54    1
    59    25    55    1
    60    26    56    1
    61    26    57    1
    62    27    58    1
    63    27    59    1
    64    29    60    1
    65    29    61    1
    66    29    62    1
    67    30    63    1
    68    30    64    1
    69    30    65    1
    70    34    66    1
    71    35    67    1
    72    68     1    1
    73    68    33    1
    74    68    18    1
    75    68    11    1
@<TRIPOS>MOLECULE
*****
 68 75 0 0 0
SMALL
GASTEIGER

@<TRIPOS>ATOM
      1 O          -0.1057   -0.2436   -0.9910 O.2     1  UNL1        0.0000
      2 C          -1.3016    0.6040   -0.6211 C.2     1  UNL1        0.0000
      3 N          -0.8949   -1.5488    3.0219 N.am    1  UNL1        0.0000
      4 C          -2.6587   -1.8076    2.3835 C.3     1  UNL1        0.0000
      5 C           0.3916   -2.2180    3.0922 C.3     1  UNL1        0.0000
      6 C           2.9465   -2.4427    2.3725 C.3     1  UNL1        0.0000
      7 C          -1.6280   -4.1811    0.1552 C.3     1  UNL1        0.0000
      8 C          -0.5131    2.5502    0.5994 C.ar    1  UNL1        0.0000
      9 C           1.2625    0.9297    1.0017 C.ar    1  UNL1        0.0000
     10 C          -0.4866   -0.4077   -4.2830 C.ar    1  UNL1        0.0000
     11 N           0.6203    2.7628   -1.1190 N.ar    1  UNL1        0.0000
     12 C           1.6019    2.3392   -2.2791 C.ar    1  UNL1        0.0000
     13 C          -1.5868    0.2976   -3.7378 C.ar    1  UNL1        0.0000
     14 C          -0.2617   -2.8028   -0.0414 C.ar    1  UNL1        0.0000
     15 C          -0.3568   -2.8161   -0.0465 C.ar    1  UNL1        0.0000
     16 C           0.2515   -1.2486   -2.6092 C.ar    1  UNL1        0.0000
     17 C           2.4878   -1.1371   -1.9106 C.ar    1  UNL1        0.0000
     18 N           1.2815   -0.6508    0.5617 N.ar    1  UNL1        0.0000
     19 C          -0.3813   -0.8868    0.9328 C.ar    1  UNL1        0.0000
     20 C          -1.2547   -0.8424    1.6475 C.ar    1  UNL1        0.0000
     21 N          -2.9618    0.8015   -0.5810 N.ar    1  UNL1        0.0000
     22 C          -1.3182   -0.2196   -2.0784 C.ar    1  UNL1        0.0000
     23 C          -0.7458   -4.3857   -2.0042 C.3     1  UNL1        0.0000
     24 C          -1.4996    1.0596    0.9150 C.3     1  UNL1        0.0000
     25 C           0.4145    1.3041   -2.4622 C.3     1  UNL1        0.0000
     26 C          -1.5747    0.9627    0.9208 C.3     1  UNL1        0.0000
     27 C          -2.7969   -0.3124    0.6005 C.3     1  UNL1        0.0000
     28 C           2.5887    0.4440    1.9470 C.3     1  UNL1        0.0000
     29 C           1.5620    0.9436    2.5737 C.3     1  UNL1        0.0000
     30 C          -3.0263   -2.5739    0.8983 C.3     1  UNL1        0.0000
     31 C          -1.0435    0.6849   -2.2260 C.ar    1  UNL1        0.0000
     32 N          -2.5293    3.4361    0.0938 N.ar    1  UNL1        0.0000
     33 N           0.1866    1.9930    2.4367 N.ar    1  UNL1        0.0000
     34 C          -0.3251   -0.1444    1.1279 C.ar    1  UNL1        0.0000
     35 C           0.2000    1.4321   -0.2421 C.ar    1  UNL1        0.0000
     36 H          -1.7950    0.4892    2.3726 H       1  UNL1        0.0000
     37 H          -1.0433   -4.2720    2.7160 H       1  UNL1        0.0000
     38 H          -0.3372    1.0746    3.3826 H       1  UNL1        0.0000
     39 H           0.0399   -2.9094   -1.9285 H       1  UNL1        0.0000
     40 H          -2.3944   -0.4702    2.8462 H       1  UNL1        0.0000
     41 H           3.5908   -1.5275    2.7001 H       1  UNL1        0.0000
     42 H          -2.8581   -1.0084   -1.6592 H       1  UNL1        0.0000
     43 H          -0.4089    1.5176   -4.4369 H       1  UNL1        0.0000
     44 H           2.4694    1.0931   -1.0188 H       1  UNL1        0.0000
     45 H           1.4069   -1.9681    0.5204 H       1  UNL1        0.0000
     46 H          -0.7342   -0.1899    3.3250 H       1  UNL1        0.0000
     47 H           0.2599   -3.2903   -3.1900 H       1  UNL1        0.0000
     48 H           3.9479   -1.5409   -2.0906 H       1  UNL1        0.0000
     49 H          -0.2383    1.1804    4.9011 H       1  UNL1        0.0000
     50 H          -0.9826   -3.0074    1.3430 H       1  UNL1        0.0000
     51 H          -1.1492   -1.8850   -1.7384 H       1  UNL1        0.0000
     52 H          -0.7110    3.3161   -1.0404 H       1  UNL1        0.0000
     53 H           1.4572   -3.4798   -2.5348 H       1  UNL1        0.0000
     54 H          -1.1606    2.1448   -1.2398 H       1  UNL1        0.0000
     55 H           0.8346   -1.8314   -0.6077 H       1  UNL1        0.0000
     56 H           2.9565    0.4394    0.1104 H       1  UNL1        0.0000
     57 H           1.3519   -2.7000   -3.6280 H       1  UNL1        0.0000
     58 H          -1.3567   -1.8157   -3.8157 H       1  UNL1        0.0000
     59 H           0.8801   -0.4216    2.6526 H       1  UNL1        0.0000
     60 H          -2.8749    2.2199   -0.5473 H       1  UNL1        0.0000
     61 H           1.1760    0.1696   -3.8839 H       1  UNL1        0.0000
     62 H           2.0278    1.8648   -5.0274 H       1  UNL1        0.0000
     63 H           0.9379    3.7542   -0.2053 H       1  UNL1        0.0000
     64 H           2.8570   -0.6056   -0.5779 H       1  UNL1        0.0000
     65 H          -2.2479   -2.9774    1.3343 H       1  UNL1        0.0000
     66 H          -2.3634    1.6673    1.9046 H       1  UNL1        0.0000
     67 H           2.8240    1.9612    1.6062 H       1  UNL1        0.0000
     68 EU          1.6475    1.4943   -0.1879 Eu      1  UNL1        0.0000
@<TRIPOS>BOND
     1     1     2    2
     2     2     3   am
     3     3     4    1
     4     3     5    1
     5     5     6    1
     6     6     7    1
     7     2     8    1
     8     8     9   ar
     9     9    10   ar
    10     8    11   ar
    11    11    12   ar
    12    12    13   ar
    13    10    13   ar
    14    13    14   ar
    15    14    15   ar
    16    15    16   ar
    17    16    17   ar
    18    12    17   ar
    19    17    18   ar
    20    18    19   ar
    21    19    20    1
    22    20    21   ar
    23    21    22   ar
    24    22    23    1
    25    23    24    1
    26    23    25    1
    27    23    26    1
    28    26    27    1
    29    27    28    1
    30    28    29    1
    31    28    30    1
    32    22    31   ar
    33    28    31    1
    34    31    32   ar
    35    32    33   ar
    36    20    33   ar
    37    19    34   ar
    38    34    35   ar
    39    16    35   ar
    40     4    36    1
    41     4    37    1
    42     4    38    1
    43     5    39    1
    44     5    40    1
    45     6    41    1
    46     6    42    1
    47     7    43    1
    48     7    44    1
    49     7    45    1
    50     9    46    1
    51    10    47    1
    52    14    48    1
    53    15    49    1
    54    24    50    1
    55    24    51    1
    56    24    52    1
    57    25    53    1
    58    25    54    1
    59    25    55    1
    60    26    56    1
    61    26    57    1
    62    27    58    1
    63    27    59    1
    64    29    60    1
    65    29    61    1
    66    29    62    1
    67    30    63    1
    68    30    64    1
    69    30    65    1
    70    34    66    1
    71    35    67    1
    72    68     1    1
    73    68    33    1
    74    68    18    1
    75    68    11    1
@<TRIPOS>MOLECULE
*****
 68 75 0 0 0
SMALL
GASTEIGER

@<TRIPOS>ATOM
      1 O          -0.1057   -0.2436   -0.9910 O.2     1  UNL1        0.0000
      2 C          -1.3016    0.6040   -0.6211 C.2     1  UNL1        0.0000
      3 N          -0.8949   -1.5488    3.0219 N.am    1  UNL1        0.0000
      4 C          -2.6587   -1.8076    2.3835 C.3     1  UNL1        0.0000
      5 C           0.3916   -2.2180    3.0922 C.3     1  UNL1        0.0000
      6 C           2.9465   -2.4427    2.3725 C.3     1  UNL1        0.0000
      7 C          -1.6280   -4.1811    0.1552 C.3     1  UNL1        0.0000
      8 C          -0.5131    2.5502    0.5994 C.ar    1  UNL1        0.0000
      9 C           1.2625    0.9297    1.0017 C.ar    1  UNL1        0.0000
     10 C          -0.4866   -0.4077   -4.2830 C.ar    1  UNL1        0.0000
     11 N           0.6203    2.7628   -1.1190 N.ar    1  UNL1        0.0000
     12 C           1.6019    2.3392   -2.2791 C.ar    1  UNL1        0.0000
     13 C          -1.5868    0.2976   -3.7378 C.ar    1  UNL1        0.0000
     14 C          -0.2617   -2.8028   -0.0414 C.ar    1  UNL1        0.0000
     15 C          -0.3568   -2.8161   -0.0465 C.ar    1  UNL1        0.0000
     16 C           0.2515   -1.2486   -2.6092 C.ar    1  UNL1        0.0000
     17 C           2.4878   -1.1371   -1.9106 C.ar    1  UNL1        0.0000
     18 N           1.2815   -0.6508    0.5617 N.ar    1  UNL1        0.0000
     19 C          -0.3813   -0.8868    0.9328 C.ar    1  UNL1        0.0000
     20 C          -1.2547   -0.8424    1.6475 C.ar    1  UNL1        0.0000
     21 N          -2.9618    0.8015   -0.5810 N.ar    1  UNL1        0.0000
     22 C          -1.3182   -0.2196   -2.0784 C.ar    1  UNL1        0.0000
     23 C          -0.7458   -4.3857   -2.0042 C.3     1  UNL1        0.0000
     24 C          -1.4996    1.0596    0.9150 C.3     1  UNL1        0.0000
     25 C           0.4145    1.3041   -2.4622 C.3     1  UNL1        0.0000
     26 C          -1.5747    0.9627    0.9208 C.3     1  UNL1        0.0000
     27 C          -2.7969   -0.3124    0.6005 C.3     1  UNL1        0.0000
     28 C           2.5887    0.4440    1.9470 C.3     1  UNL1        0.0000
     29 C           1.5620    0.9436    2.5737 C.3     1  UNL1        0.0000
     30 C          -3.0263   -2.5739    0.8983 C.3     1  UNL1        0.0000
     31 C          -1.0435    0.6849   -2.2260 C.ar    1  UNL1        0.0000
     32 N          -2.5293    3.4361    0.0938 N.ar    1  UNL1        0.0000
     33 N           0.1866    1.9930    2.4367 N.ar    1  UNL1        0.0000
     34 C          -0.3251   -0.1444    1.1279 C.ar    1  UNL1        0.0000
     35 C           0.2000    1.4321   -0.2421 C.ar    1  UNL1        0.0000
     36 H          -1.7950    0.4892    2.3726 H       1  UNL1        0.0000
     37 H          -1.0433   -4.2720    2.7160 H       1  UNL1        0.0000
     38 H          -0.3372    1.0746    3.3826 H       1  UNL1        0.0000
     39 H           0.0399   -2.9094   -1.9285 H       1  UNL1        0.0000
     40 H          -2.3944   -0.4702    2.8462 H       1  UNL1        0.0000
     41 H           3.5908   -1.5275    2.7001 H       1  UNL1        0.0000
     42 H          -2.8581   -1.0084   -1.6592 H       1  UNL1        0.0000
     43 H          -0.4089    1.5176   -4.4369 H       1  UNL1        0.0000
     44 H           2.4694    1.0931   -1.0188 H       1  UNL1        0.0000
     45 H           1.4069   -1.9681    0.5204 H       1  UNL1        0.0000
     46 H          -0.7342   -0.1899    3.3250 H       1  UNL1        0.0000
     47 H           0.2599   -3.2903   -3.1900 H       1  UNL1        0.0000
     48 H           3.9479   -1.5409   -2.0906 H       1  UNL1        0.0000
     49 H          -0.2383    1.1804    4.9011 H       1  UNL1        0.0000
     50 H          -0.9826   -3.0074    1.3430 H       1  UNL1        0.0000
     51 H          -1.1492   -1.8850   -1.7384 H       1  UNL1        0.0000
     52 H          -0.7110    3.3161   -1.0404 H       1  UNL1        0.0000
     53 H           1.4572   -3.4798   -2.5348 H       1  UNL1        0.0000
     54 H          -1.1606    2.1448   -1.2398 H       1  UNL1        0.0000
     55 H           0.8346   -1.8314   -0.6077 H       1  UNL1        0.0000
     56 H           2.9565    0.4394    0.1104 H       1  UNL1        0.0000
     57 H           1.3519   -2.7000   -3.6280 H       1  UNL1        0.0000
     58 H          -1.3567   -1.8157   -3.8157 H       1  UNL1        0.0000
     59 H           0.8801   -0.4216    2.6526 H       1  UNL1        0.0000
     60 H          -2.8749    2.2199   -0.5473 H       1  UNL1        0.0000
     61 H           1.1760    0.1696   -3.8839 H       1  UNL1        0.0000
     62 H           2.0278    1.8648   -5.0274 H       1  UNL1        0.0000
     63 H           0.9379    3.7542   -0.2053 H       1  UNL1        0.0000
     64 H           2.8570   -0.6056   -0.5779 H       1  UNL1        0.0000
     65 H          -2.2479   -2.9774    1.3343 H       1  UNL1        0.0000
     66 H          -2.3634    1.6673    1.9046 H       1  UNL1        0.0000
     67 H           2.8240    1.9612    1.6062 H       1  UNL1        0.0000
     68 EU          1.6475    1.4943   -0.1879 Eu      1  UNL1        0.0000
@<TRIPOS>BOND
     1     1     2    2
     2     2     3   am
     3     3     4    1
     4     3     5    1
     5     5     6    1
     6     6     7    1
     7     2     8    1
     8     8     9   ar
     9     9    10   ar
    10     8    11   ar
    11    11    12   ar
    12    12    13   ar
    13    10    13   ar
    14    13    14   ar
    15    14    15   ar
    16    15    16   ar
    17    16    17   ar
    18    12    17   ar
    19    17    18   ar
    20    18    19   ar
    21    19    20    1
    22    20    21   ar
    23    21    22   ar
    24    22    23    1
    25    23    24    1
    26    23    25    1
    27    23    26    1
    28    26    27    1
    29    27    28    1
    30    28    29    1
    31    28    30    1
    32    22    31   ar
    33    28    31    1
    34    31    32   ar
    35    32    33   ar
    36    20    33   ar
    37    19    34   ar
    38    34    35   ar
    39    16    35   ar
    40     4    36    1
    41     4    37    1
    42     4    38    1
    43     5    39    1
    44     5    40    1
    45     6    41    1
    46     6    42    1
    47     7    43    1
    48     7    44    1
    49     7    45    1
    50     9    46    1
    51    10    47    1
    52    14    48    1
    53    15    49    1
    54    24    50    1
    55    24    51    1
    56    24    52    1
    57    25    53    1
    58    25    54    1
    59    25    55    1
    60    26    56    1
    61    26    57    1
    62    27    58    1
    63    27    59    1
    64    29    60    1
    65    29    61    1
    66    29    62    1
    67    30    63    1
    68    30    64    1
    69    30    65    1
    70    34    66    1
    71    35    67    1
    72    68     1    1
    73    68    33    1
    74    68    18    1
    75    68    11    1
@<TRIPOS>MOLECULE
*****
 68 75 0 0 0
SMALL
GASTEIGER

@<TRIPOS>ATOM
      1 O          -0.1057   -0.2436   -0.9910 O.2     1  UNL1        0.0000
      2 C          -1.3016    0.6040   -0.6211 C.2     1  UNL1        0.0000
      3 N          -0.8949   -1.5488    3.0219 N.am    1  UNL1        0.0000
      4 C          -2.6587   -1.8076    2.3835 C.3     1  UNL1        0.0000
      5 C           0.3916   -2.2180    3.0922 C.3     1  UNL1        0.0000
      6 C           2.9465   -2.4427    2.3725 C.3     1  UNL1        0.0000
      7 C          -1.6280   -4.1811    0.1552 C.3     1  UNL1        0.0000
      8 C          -0.5131    2.5502    0.5994 C.ar    1  UNL1        0.0000
      9 C           1.2625    0.9297    1.0017 C.ar    1  UNL1        0.0000
     10 C          -0.4866   -0.4077   -4.2830 C.ar    1  UNL1        0.0000
     11 N           0.6203    2.7628   -1.1190 N.ar    1  UNL1        0.0000
     12 C           1.6019    2.3392   -2.2791 C.ar    1  UNL1        0.0000
     13 C          -1.5868    0.2976   -3.7378 C.ar    1  UNL1        0.0000
     14 C          -0.2617   -2.8028   -0.0414 C.ar    1  UNL1        0.0000
     15 C          -0.3568   -2.8161   -0.0465 C.ar    1  UNL1        0.0000
     16 C           0.2515   -1.2486   -2.6092 C.ar    1  UNL1        0.0000
     17 C           2.4878   -1.1371   -1.9106 C.ar    1  UNL1        0.0000
     18 N           1.2815   -0.6508    0.5617 N.ar    1  UNL1        0.0000
     19 C          -0.3813   -0.8868    0.9328 C.ar    1  UNL1        0.0000
     20 C          -1.2547   -0.8424    1.6475 C.ar    1  UNL1        0.0000
     21 N          -2.9618    0.8015   -0.5810 N.ar    1  UNL1        0.0000
     22 C          -1.3182   -0.2196   -2.0784 C.ar    1  UNL1        0.0000
     23 C          -0.7458   -4.3857   -2.0042 C.3     1  UNL1        0.0000
     24 C          -1.4996    1.0596    0.9150 C.3     1  UNL1        0.0000
     25 C           0.4145    1.3041   -2.4622 C.3     1  UNL1        0.0000
     26 C          -1.5747    0.9627    0.9208 C.3     1  UNL1        0.0000
     27 C          -2.7969   -0.3124    0.6005 C.3     1  UNL1        0.0000
     28 C           2.5887    0.4440    1.9470 C.3     1  UNL1        0.0000
     29 C           1.5620    0.9436    2.5737 C.3     1  UNL1        0.0000
     30 C          -3.0263   -2.5739    0.8983 C.3     1  UNL1        0.0000
     31 C          -1.0435    0.6849   -2.2260 C.ar    1  UNL1        0.0000
     32 N          -2.5293    3.4361    0.0938 N.ar    1  UNL1        0.0000
     33 N           0.1866    1.9930    2.4367 N.ar    1  UNL1        0.0000
     34 C          -0.3251   -0.1444    1.1279 C.ar    1  UNL1        0.0000
     35 C           0.2000    1.4321   -0.2421 C.ar    1  UNL1        0.0000
     36 H          -1.7950    0.4892    2.3726 H       1  UNL1        0.0000
     37 H          -1.0433   -4.2720    2.7160 H       1  UNL1        0.0000
     38 H          -0.3372    1.0746    3.3826 H       1  UNL1        0.0000
     39 H           0.0399   -2.9094   -1.9285 H       1  UNL1        0.0000
     40 H          -2.3944   -0.4702    2.8462 H       1  UNL1        0.0000
     41 H           3.5908   -1.5275    2.7001 H       1  UNL1        0.0000
     42 H          -2.8581   -1.0084   -1.6592 H       1  UNL1        0.0000
     43 H          -0.4089    1.5176   -4.4369 H       1  UNL1        0.0000
     44 H           2.4694    1.0931   -1.0188 H       1  UNL1        0.0000
     45 H           1.4069   -1.9681    0.5204 H       1  UNL1        0.0000
     46 H          -0.7342   -0.1899    3.3250 H       1  UNL1        0.0000
     47 H           0.2599   -3.2903   -3.1900 H       1  UNL1        0.0000
     48 H           3.9479   -1.5409   -2.0906 H       1  UNL1        0.0000
     49 H          -0.2383    1.1804    4.9011 H       1  UNL1        0.0000
     50 H          -0.9826   -3.0074    1.3430 H       1  UNL1        0.0000
     51 H          -1.1492   -1.8850   -1.7384 H       1  UNL1        0.0000
     52 H          -0.7110    3.3161   -1.0404 H       1  UNL1        0.0000
     53 H           1.4572   -3.4798   -2.5348 H       1  UNL1        0.0000
     54 H          -1.1606    2.1448   -1.2398 H       1  UNL1        0.0000
     55 H           0.8346   -1.8314   -0.6077 H       1  UNL1        0.0000
     56 H           2.9565    0.4394    0.1104 H       1  UNL1        0.0000
     57 H           1.3519   -2.7000   -3.6280 H       1  UNL1        0.0000
     58 H          -1.3567   -1.8157   -3.8157 H       1  UNL1        0.0000
     59 H           0.8801   -0.4216    2.6526 H       1  UNL1        0.0000
     60 H          -2.8749    2.2199   -0.5473 H       1  UNL1        0.0000
     61 H           1.1760    0.1696   -3.8839 H       1  UNL1        0.0000
     62 H           2.0278    1.8648   -5.0274 H       1  UNL1        0.0000
     63 H           0.9379    3.7542   -0.2053 H       1  UNL1        0.0000
     64 H           2.8570   -0.6056   -0.5779 H       1  UNL1        0.0000
     65 H          -2.2479   -2.9774    1.3343 H       1  UNL1        0.0000
     66 H          -2.3634    1.6673    1.9046 H       1  UNL1        0.0000
     67 H           2.8240    1.9612    1.6062 H       1  UNL1        0.0000
     68 EU          1.6475    1.4943   -0.1879 Eu      1  UNL1        0.0000
@<TRIPOS>BOND
     1     1     2    2
     2     2     3   am
     3     3     4    1
     4     3     5    1
     5     5     6    1
     6     6     7    1
     7     2     8    1
     8     8     9   ar
     9     9    10   ar
    10     8    11   ar
    11    11    12   ar
    12    12    13   ar
    13    10    13   ar
    14    13    14   ar
    15    14    15   ar
    16    15    16   ar
    17    16    17   ar
    18    12    17   ar
    19    17    18   ar
    20    18    19   ar
    21    19    20    1
    22    20    21   ar
    23    21    22   ar
    24    22    23    1
    25    23    24    1
    26    23    25    1
    27    23    26    1
    28    26    27    1
    29    27    28    1
    30    28    29    1
    31    28    30    1
    32    22    31   ar
    33    28    31    1
    34    31    32   ar
    35    32    33   ar
    36    20    33   ar
    37    19    34   ar
    38    34    35   ar
    39    16    35   ar
    40     4    36    1
    41     4    37    1
    42     4    38    1
    43     5    39    1
    44     5    40    1
    45     6    41    1
    46     6    42    1
    47     7    43    1
    48     7    44    1
    49     7    45    1
    50     9    46    1
    51    10    47    1
    52    14    48    1
    53    15    49    1
    54    24    50    1
    55    24    51    1
    56    24    52    1
    57    25    53    1
    58    25    54    1
    59    25    55    1
    60    26    56    1
    61    26    57    1
    62    27    58    1
    63    27    59    1
    64    29    60    1
    65    29    61    1
    66    29    62    1
    67    30    63    1
    68    30    64    1
    69    30    65    1
    70    34    66    1
    71    35    67    1
    72    68     1    1
    73    68    33    1
    74    68    18    1
    75    68    11    1
@<TRIPOS>MOLECULE
*****
 68 75 0 0 0
SMALL
GASTEIGER

@<TRIPOS>ATOM
      1 O          -0.1057   -0.2436   -0.9910 O.2     1  UNL1        0.0000
      2 C          -1.3016    0.6040   -0.6211 C.2     1  UNL1        0.0000
      3 N          -0.8949   -1.5488    3.0219 N.am    1  UNL1        0.0000
      4 C          -2.6587   -1.8076    2.3835 C.3     1  UNL1        0.0000
      5 C           0.3916   -2.2180    3.0922 C.3     1  UNL1        0.0000
      6 C           2.9465   -2.4427    2.3725 C.3     1  UNL1        0.0000
      7 C          -1.6280   -4.1811    0.1552 C.3     1  UNL1        0.0000
      8 C          -0.5131    2.5502    0.5994 C.ar    1  UNL1        0.0000
      9 C           1.2625    0.9297    1.0017 C.ar    1  UNL1        0.0000
     10 C          -0.4866   -0.4077   -4.2830 C.ar    1  UNL1        0.0000
     11 N           0.6203    2.7628   -1.1190 N.ar    1  UNL1        0.0000
     12 C           1.6019    2.3392   -2.2791 C.ar    1  UNL1        0.0000
     13 C          -1.5868    0.2976   -3.7378 C.ar    1  UNL1        0.0000
     14 C          -0.2617   -2.8028   -0.0414 C.ar    1  UNL1        0.0000
     15 C          -0.3568   -2.8161   -0.0465 C.ar    1  UNL1        0.0000
     16 C           0.2515   -1.2486   -2.6092 C.ar    1  UNL1        0.0000
     17 C           2.4878   -1.1371   -1.9106 C.ar    1  UNL1        0.0000
     18 N           1.2815   -0.6508    0.5617 N.ar    1  UNL1        0.0000
     19 C          -0.3813   -0.8868    0.9328 C.ar    1  UNL1        0.0000
     20 C          -1.2547   -0.8424    1.6475 C.ar    1  UNL1        0.0000
     21 N          -2.9618    0.8015   -0.5810 N.ar    1  UNL1        0.0000
     22 C          -1.3182   -0.2196   -2.0784 C.ar    1  UNL1        0.0000
     23 C          -0.7458   -4.3857   -2.0042 C.3     1  UNL1        0.0000
     24 C          -1.4996    1.0596    0.9150 C.3     1  UNL1        0.0000
     25 C           0.4145    1.3041   -2.4622 C.3     1  UNL1        0.0000
     26 C          -1.5747    0.9627    0.9208 C.3     1  UNL1        0.0000
     27 C          -2.7969   -0.3124    0.6005 C.3     1  UNL1        0.0000
     28 C           2.5887    0.4440    1.9470 C.3     1  UNL1        0.0000
     29 C           1.5620    0.9436    2.5737 C.3     1  UNL1        0.0000
     30 C          -3.0263   -2.5739    0.8983 C.3     1  UNL1        0.0000
     31 C          -1.0435    0.6849   -2.2260 C.ar    1  UNL1        0.0000
     32 N          -2.5293    3.4361    0.0938 N.ar    1  UNL1        0.0000
     33 N           0.1866    1.9930    2.4367 N.ar    1  UNL1        0.0000
     34 C          -0.3251   -0.1444    1.1279 C.ar    1  UNL1        0.0000
     35 C           0.2000    1.4321   -0.2421 C.ar    1  UNL1        0.0000
     36 H          -1.7950    0.4892    2.3726 H       1  UNL1        0.0000
     37 H          -1.0433   -4.2720    2.7160 H       1  UNL1        0.0000
     38 H          -0.3372    1.0746    3.3826 H       1  UNL1        0.0000
     39 H           0.0399   -2.9094   -1.9285 H       1  UNL1        0.0000
     40 H          -2.3944   -0.4702    2.8462 H       1  UNL1        0.0000
     41 H           3.5908   -1.5275    2.7001 H       1  UNL1        0.0000
     42 H          -2.8581   -1.0084   -1.6592 H       1  UNL1        0.0000
     43 H          -0.4089    1.5176   -4.4369 H       1  UNL1        0.0000
     44 H           2.4694    1.0931   -1.0188 H       1  UNL1        0.0000
     45 H           1.4069   -1.9681    0.5204 H       1  UNL1        0.0000
     46 H          -0.7342   -0.1899    3.3250 H       1  UNL1        0.0000
     47 H           0.2599   -3.2903   -3.1900 H       1  UNL1        0.0000
     48 H           3.9479   -1.5409   -2.0906 H       1  UNL1        0.0000
     49 H          -0.2383    1.1804    4.9011 H       1  UNL1        0.0000
     50 H          -0.9826   -3.0074    1.3430 H       1  UNL1        0.0000
     51 H          -1.1492   -1.8850   -1.7384 H       1  UNL1        0.0000
     52 H          -0.7110    3.3161   -1.0404 H       1  UNL1        0.0000
     53 H           1.4572   -3.4798   -2.5348 H       1  UNL1        0.0000
     54 H          -1.1606    2.1448   -1.2398 H       1  UNL1        0.0000
     55 H           0.8346   -1.8314   -0.6077 H       1  UNL1        0.0000
     56 H           2.9565    0.4394    0.1104 H       1  UNL1        0.0000
     57 H           1.3519   -2.7000   -3.6280 H       1  UNL1        0.0000
     58 H          -1.3567   -1.8157   -3.8157 H       1  UNL1        0.0000
     59 H           0.8801   -0.4216    2.6526 H       1  UNL1        0.0000
     60 H          -2.8749    2.2199   -0.5473 H       1  UNL1        0.0000
     61 H           1.1760    0.1696   -3.8839 H       1  UNL1        0.0000
     62 H           2.0278    1.8648   -5.0274 H       1  UNL1        0.0000
     63 H           0.9379    3.7542   -0.2053 H       1  UNL1        0.0000
     64 H           2.8570   -0.6056   -0.5779 H       1  UNL1        0.0000
     65 H          -2.2479   -2.9774    1.3343 H       1  UNL1        0.0000
     66 H          -2.3634    1.6673    1.9046 H       1  UNL1        0.0000
     67 H           2.8240    1.9612    1.6062 H       1  UNL1        0.0000
     68 EU          1.6475    1.4943   -0.1879 Eu      1  UNL1        0.0000
@<TRIPOS>BOND
     1     1     2    2
     2     2     3   am
     3     3     4    1
     4     3     5    1
     5     5     6    1
     6     6     7    1
     7     2     8    1
     8     8     9   ar
     9     9    10   ar
    10     8    11   ar
    11    11    12   ar
    12    12    13   ar
    13    10    13   ar
    14    13    14   ar
    15    14    15   ar
    16    15    16   ar
    17    16    17   ar
    18    12    17   ar
    19    17    18   ar
    20    18    19   ar
    21    19    20    1
    22    20    21   ar
    23    21    22   ar
    24    22    23    1
    25    23    24    1
    26    23    25    1
    27    23    26    1
    28    26    27    1
    29    27    28    1
    30    28    29    1
    31    28    30    1
    32    22    31   ar
    33    28    31    1
    34    31    32   ar
    35    32    33   ar
    36    20    33   ar
    37    19    34   ar
    38    34    35   ar
    39    16    35   ar
    40     4    36    1
    41     4    37    1
    42     4    38    1
    43     5    39    1
    44     5    40    1
    45     6    41    1
    46     6    42    1
    47     7    43    1
    48     7    44    1
    49     7    45    1
    50     9    46    1
    51    10    47    1
    52    14    48    1
    53    15    49    1
    54    24    50    1
    55    24    51    1
    56    24    52    1
    57    25    53    1
    58    25    54    1
    59    25    55    1
    60    26    56    1
    61    26    57    1
    62    27    58    1
    63    27    59    1
    64    29    60    1
    65    29    61    1
    66    29    62    1
    67    30    63    1
    68    30    64    1
    69    30    65    1
    70    34    66    1
    71    35    67    1
    72    68     1    1
    73    68    33    1
    74    68    18    1
    75    68    11    1
@<TRIPOS>MOLECULE
*****
 68 75 0 0 0
SMALL
GASTEIGER

@<TRIPOS>ATOM
      1 O          -0.1057   -0.2436   -0.9910 O.2     1  UNL1        0.0000
      2 C          -1.3016    0.6040   -0.6211 C.2     1  UNL1        0.0000
      3 N          -0.8949   -1.5488    3.0219 N.am    1  UNL1        0.0000
      4 C          -2.6587   -1.8076    2.3835 C.3     1  UNL1        0.0000
      5 C           0.3916   -2.2180    3.0922 C.3     1  UNL1        0.0000
      6 C           2.9465   -2.4427    2.3725 C.3     1  UNL1        0.0000
      7 C          -1.6280   -4.1811    0.1552 C.3     1  UNL1        0.0000
      8 C          -0.5131    2.5502    0.5994 C.ar    1  UNL1        0.0000
      9 C           1.2625    0.9297    1.0017 C.ar    1  UNL1        0.0000
     10 C          -0.4866   -0.4077   -4.2830 C.ar    1  UNL1        0.0000
     11 N           0.6203    2.7628   -1.1190 N.ar    1  UNL1        0.0000
     12 C           1.6019    2.3392   -2.2791 C.ar    1  UNL1        0.0000
     13 C          -1.5868    0.2976   -3.7378 C.ar    1  UNL1        0.0000
     14 C          -0.2617   -2.8028   -0.0414 C.ar    1  UNL1        0.0000
     15 C          -0.3568   -2.8161   -0.0465 C.ar    1  UNL1        0.0000
     16 C           0.2515   -1.2486   -2.6092 C.ar    1  UNL1        0.0000
     17 C           2.4878   -1.1371   -1.9106 C.ar    1  UNL1        0.0000
     18 N           1.2815   -0.6508    0.5617 N.ar    1  UNL1        0.0000
     19 C          -0.3813   -0.8868    0.9328 C.ar    1  UNL1        0.0000
     20 C          -1.2547   -0.8424    1.6475 C.ar    1  UNL1        0.0000
     21 N          -2.9618    0.8015   -0.5810 N.ar    1  UNL1        0.0000
     22 C          -1.3182   -0.2196   -2.0784 C.ar    1  UNL1        0.0000
     23 C          -0.7458   -4.3857   -2.0042 C.3     1  UNL1        0.0000
     24 C          -1.4996    1.0596    0.9150 C.3     1  UNL1        0.0000
     25 C           0.4145    1.3041   -2.4622 C.3     1  UNL1        0.0000
     26 C          -1.5747    0.9627    0.9208 C.3     1  UNL1        0.0000
     27 C          -2.7969   -0.3124    0.6005 C.3     1  UNL1        0.0000
     28 C           2.5887    0.4440    1.9470 C.3     1  UNL1        0.0000
     29 C           1.5620    0.9436    2.5737 C.3     1  UNL1        0.0000
     30 C          -3.0263   -2.5739    0.8983 C.3     1  UNL1        0.0000
     31 C          -1.0435    0.6849   -2.2260 C.ar    1  UNL1        0.0000
     32 N          -2.5293    3.4361    0.0938 N.ar    1  UNL1        0.0000
     33 N           0.1866    1.9930    2.4367 N.ar    1  UNL1        0.0000
     34 C          -0.3251   -0.1444    1.1279 C.ar    1  UNL1        0.0000
     35 C           0.2000    1.4321   -0.2421 C.ar    1  UNL1        0.0000
     36 H          -1.7950    0.4892    2.3726 H       1  UNL1        0.0000
     37 H          -1.0433   -4.2720    2.7160 H       1  UNL1        0.0000
     38 H          -0.3372    1.0746    3.3826 H       1  UNL1        0.0000
     39 H           0.0399   -2.9094   -1.9285 H       1  UNL1        0.0000
     40 H          -2.3944   -0.4702    2.8462 H       1  UNL1        0.0000
     41 H           3.5908   -1.5275    2.7001 H       1  UNL1        0.0000
     42 H          -2.8581   -1.0084   -1.6592 H       1  UNL1        0.0000
     43 H          -0.4089    1.5176   -4.4369 H       1  UNL1        0.0000
     44 H           2.4694    1.0931   -1.0188 H       1  UNL1        0.0000
     45 H           1.4069   -1.9681    0.5204 H       1  UNL1        0.0000
     46 H          -0.7342   -0.1899    3.3250 H       1  UNL1        0.0000
     47 H           0.2599   -3.2903   -3.1900 H       1  UNL1        0.0000
     48 H           3.9479   -1.5409   -2.0906 H       1  UNL1        0.0000
     49 H          -0.2383    1.1804    4.9011 H       1  UNL1        0.0000
     50 H          -0.9826   -3.0074    1.3430 H       1  UNL1        0.0000
     51 H          -1.1492   -1.8850   -1.7384 H       1  UNL1        0.0000
     52 H          -0.7110    3.3161   -1.0404 H       1  UNL1        0.0000
     53 H           1.4572   -3.4798   -2.5348 H       1  UNL1        0.0000
     54 H          -1.1606    2.1448   -1.2398 H       1  UNL1        0.0000
     55 H           0.8346   -1.8314   -0.6077 H       1  UNL1        0.0000
     56 H           2.9565    0.4394    0.1104 H       1  UNL1        0.0000
     57 H           1.3519   -2.7000   -3.6280 H       1  UNL1        0.0000
     58 H          -1.3567   -1.8157   -3.8157 H       1  UNL1        0.0000
     59 H           0.8801   -0.4216    2.6526 H       1  UNL1        0.0000
     60 H          -2.8749    2.2199   -0.5473 H       1  UNL1        0.0000
     61 H           1.1760    0.1696   -3.8839 H       1  UNL1        0.0000
     62 H           2.0278    1.8648   -5.0274 H       1  UNL1        0.0000
     63 H           0.9379    3.7542   -0.2053 H       1  UNL1        0.0000
     64 H           2.8570   -0.6056   -0.5779 H       1  UNL1        0.0000
     65 H          -2.2479   -2.9774    1.3343 H       1  UNL1        0.0000
     66 H          -2.3634    1.6673    1.9046 H       1  UNL1        0.0000
     67 H           2.8240    1.9612    1.6062 H       1  UNL1        0.0000
     68 EU          1.6475    1.4943   -0.1879 Eu      1  UNL1        0.0000
@<TRIPOS>BOND
     1     1     2    2
     2     2     3   am
     3     3     4    1
     4     3     5    1
     5     5     6    1
     6     6     7    1
     7     2     8    1
     8     8     9   ar
     9     9    10   ar
    10     8    11   ar
    11    11    12   ar
    12    12    13   ar
    13    10    13   ar
    14    13    14   ar
    15    14    15   ar
    16    15    16   ar
    17    16    17   ar
    18    12    17   ar
    19    17    18   ar
    20    18    19   ar
    21    19    20    1
    22    20    21   ar
    23    21    22   ar
    24    22    23    1
    25    23    24    1
    26    23    25    1
    27    23    26    1
    28    26    27    1
    29    27    28    1
    30    28    29    1
    31    28    30    1
    32    22    31   ar
    33    28    31    1
    34    31    32   ar
    35    32    33   ar
    36    20    33   ar
    37    19    34   ar
    38    34    35   ar
    39    16    35   ar
    40     4    36    1
    41     4    37    1
    42     4    38    1
    43     5    39    1
    44     5    40    1
    45     6    41    1
    46     6    42    1
    47     7    43    1
    48     7    44    1
    49     7    45    1
    50     9    46    1
    51    10    47    1
    52    14    48    1
    53    15    49    1
    54    24    50    1
    55    24    51    1
    56    24    52    1
    57    25    53    1
    58    25    54    1
    59    25    55    1
    60    26    56    1
    61    26    57    1
    62    27    58    1
    63    27    59    1
    64    29    60    1
    65    29    61    1
    66    29    62    1
    67    30    63    1
    68    30    64    1
    69    30    65    1
    70    34    66    1
    71    35    67    1
    72    68     1    1
    73    68    33    1
    74    68    18    1
    75    68    11    1
@<TRIPOS>MOLECULE
*****
 68 75 0 0 0
SMALL
GASTEIGER

@<TRIPOS>ATOM
      1 O          -0.1057   -0.2436   -0.9910 O.2     1  UNL1        0.0000
      2 C          -1.3016    0.6040   -0.6211 C.2     1  UNL1        0.0000
      3 N          -0.8949   -1.5488    3.0219 N.am    1  UNL1        0.0000
      4 C          -2.6587   -1.8076    2.3835 C.3     1  UNL1        0.0000
      5 C           0.3916   -2.2180    3.0922 C.3     1  UNL1        0.0000
      6 C           2.9465   -2.4427    2.3725 C.3     1  UNL1        0.0000
      7 C          -1.6280   -4.1811    0.1552 C.3     1  UNL1        0.0000
      8 C          -0.5131    2.5502    0.5994 C.ar    1  UNL1        0.0000
      9 C           1.2625    0.9297    1.0017 C.ar    1  UNL1        0.0000
     10 C          -0.4866   -0.4077   -4.2830 C.ar    1  UNL1        0.0000
     11 N           0.6203    2.7628   -1.1190 N.ar    1  UNL1        0.0000
     12 C           1.6019    2.3392   -2.2791 C.ar    1  UNL1        0.0000
     13 C          -1.5868    0.2976   -3.7378 C.ar    1  UNL1        0.0000
     14 C          -0.2617   -2.8028   -0.0414 C.ar    1  UNL1        0.0000
     15 C          -0.3568   -2.8161   -0.0465 C.ar    1  UNL1        0.0000
     16 C           0.2515   -1.2486   -2.6092 C.ar    1  UNL1        0.0000
     17 C           2.4878   -1.1371   -1.9106 C.ar    1  UNL1        0.0000
     18 N           1.2815   -0.6508    0.5617 N.ar    1  UNL1        0.0000
     19 C          -0.3813   -0.8868    0.9328 C.ar    1  UNL1        0.0000
     20 C          -1.2547   -0.8424    1.6475 C.ar    1  UNL1        0.0000
     21 N          -2.9618    0.8015   -0.5810 N.ar    1  UNL1        0.0000
     22 C          -1.3182   -0.2196   -2.0784 C.ar    1  UNL1        0.0000
     23 C          -0.7458   -4.3857   -2.0042 C.3     1  UNL1        0.0000
     24 C          -1.4996    1.0596    0.9150 C.3     1  UNL1        0.0000
     25 C           0.4145    1.3041   -2.4622 C.3     1  UNL1        0.0000
     26 C          -1.5747    0.9627    0.9208 C.3     1  UNL1        0.0000
     27 C          -2.7969   -0.3124    0.6005 C.3     1  UNL1        0.0000
     28 C           2.5887    0.4440    1.9470 C.3     1  UNL1        0.0000
     29 C           1.5620    0.9436    2.5737 C.3     1  UNL1        0.0000
     30 C          -3.0263   -2.5739    0.8983 C.3     1  UNL1        0.0000
     31 C          -1.0435    0.6849   -2.2260 C.ar    1  UNL1        0.0000
     32 N          -2.5293    3.4361    0.0938 N.ar    1  UNL1        0.0000
     33 N           0.1866    1.9930    2.4367 N.ar    1  UNL1        0.0000
     34 C          -0.3251   -0.1444    1.1279 C.ar    1  UNL1        0.0000
     35 C           0.2000    1.4321   -0.2421 C.ar    1  UNL1        0.0000
     36 H          -1.7950    0.4892    2.3726 H       1  UNL1        0.0000
     37 H          -1.0433   -4.2720    2.7160 H       1  UNL1        0.0000
     38 H          -0.3372    1.0746    3.3826 H       1  UNL1        0.0000
     39 H           0.0399   -2.9094   -1.9285 H       1  UNL1        0.0000
     40 H          -2.3944   -0.4702    2.8462 H       1  UNL1        0.0000
     41 H           3.5908   -1.5275    2.7001 H       1  UNL1        0.0000
     42 H          -2.8581   -1.0084   -1.6592 H       1  UNL1        0.0000
     43 H          -0.4089    1.5176   -4.4369 H       1  UNL1        0.0000
     44 H           2.4694    1.0931   -1.0188 H       1  UNL1        0.0000
     45 H           1.4069   -1.9681    0.5204 H       1  UNL1        0.0000
     46 H          -0.7342   -0.1899    3.3250 H       1  UNL1        0.0000
     47 H           0.2599   -3.2903   -3.1900 H       1  UNL1        0.0000
     48 H           3.9479   -1.5409   -2.0906 H       1  UNL1        0.0000
     49 H          -0.2383    1.1804    4.9011 H       1  UNL1        0.0000
     50 H          -0.9826   -3.0074    1.3430 H       1  UNL1        0.0000
     51 H          -1.1492   -1.8850   -1.7384 H       1  UNL1        0.0000
     52 H          -0.7110    3.3161   -1.0404 H       1  UNL1        0.0000
     53 H           1.4572   -3.4798   -2.5348 H       1  UNL1        0.0000
     54 H          -1.1606    2.1448   -1.2398 H       1  UNL1        0.0000
     55 H           0.8346   -1.8314   -0.6077 H       1  UNL1        0.0000
     56 H           2.9565    0.4394    0.1104 H       1  UNL1        0.0000
     57 H           1.3519   -2.7000   -3.6280 H       1  UNL1        0.0000
     58 H          -1.3567   -1.8157   -3.8157 H       1  UNL1        0.0000
     59 H           0.8801   -0.4216    2.6526 H       1  UNL1        0.0000
     60 H          -2.8749    2.2199   -0.5473 H       1  UNL1        0.0000
     61 H           1.1760    0.1696   -3.8839 H       1  UNL1        0.0000
     62 H           2.0278    1.8648   -5.0274 H       1  UNL1        0.0000
     63 H           0.9379    3.7542   -0.2053 H       1  UNL1        0.0000
     64 H           2.8570   -0.6056   -0.5779 H       1  UNL1        0.0000
     65 H          -2.2479   -2.9774    1.3343 H       1  UNL1        0.0000
     66 H          -2.3634    1.6673    1.9046 H       1  UNL1        0.0000
     67 H           2.8240    1.9612    1.6062 H       1  UNL1        0.0000
     68 EU          1.6475    1.4943   -0.1879 Eu      1  UNL1        0.0000
@<TRIPOS>BOND
     1     1     2    2
     2     2     3   am
     3     3     4    1
     4     3     5    1
     5     5     6    1
     6     6     7    1
     7     2     8    1
     8     8     9   ar
     9     9    10   ar
    10     8    11   ar
    11    11    12   ar
    12    12    13   ar
    13    10    13   ar
    14    13    14   ar
    15    14    15   ar
    16    15    16   ar
    17    16    17   ar
    18    12    17   ar
    19    17    18   ar
    20    18    19   ar
    21    19    20    1
    22    20    21   ar
    23    21    22   ar
    24    22    23    1
    25    23    24    1
    26    23    25    1
    27    23    26    1
    28    26    27    1
    29    27    28    1
    30    28    29    1
    31    28    30    1
    32    22    31   ar
    33    28    31    1
    34    31    32   ar
    35    32    33   ar
    36    20    33   ar
    37    19    34   ar
    38    34    35   ar
    39    16    35   ar
    40     4    36    1
    41     4    37    1
    42     4    38    1
    43     5    39    1
    44     5    40    1
    45     6    41    1
    46     6    42    1
    47     7    43    1
    48     7    44    1
    49     7    45    1
    50     9    46    1
    51    10    47    1
    52    14    48    1
    53    15    49    1
    54    24    50    1
    55    24    51    1
    56    24    52    1
    57    25    53    1
    58    25    54    1
    59    25    55    1
    60    26    56    1
    61    26    57    1
    62    27    58    1
    63    27    59    1
    64    29    60    1
    65    29    61    1
    66    29    62    1
    67    30    63    1
    68    30    64    1
    69    30    65    1
    70    34    66    1
    71    35    67    1
    72    68     1    1
    73    68    33    1
    74    68    18    1
    75    68    11    1
@<TRIPOS>MOLECULE
*****
 68 75 0 0 0
SMALL
GASTEIGER

@<TRIPOS>ATOM
      1 O          -0.1057   -0.2436   -0.9910 O.2     1  UNL1        0.0000
      2 C          -1.3016    0.6040   -0.6211 C.2     1  UNL1        0.0000
      3 N          -0.8949   -1.5488    3.0219 N.am    1  UNL1        0.0000
      4 C          -2.6587   -1.8076    2.3835 C.3     1  UNL1        0.0000
      5 C           0.3916   -2.2180    3.0922 C.3     1  UNL1        0.0000
      6 C           2.9465   -2.4427    2.3725 C.3     1  UNL1        0.0000
      7 C          -1.6280   -4.1811    0.1552 C.3     1  UNL1        0.0000
      8 C          -0.5131    2.5502    0.5994 C.ar    1  UNL1        0.0000
      9 C           1.2625    0.9297    1.0017 C.ar    1  UNL1        0.0000
     10 C          -0.4866   -0.4077   -4.2830 C.ar    1  UNL1        0.0000
     11 N           0.6203    2.7628   -1.1190 N.ar    1  UNL1        0.0000
     12 C           1.6019    2.3392   -2.2791 C.ar    1  UNL1        0.0000
     13 C          -1.5868    0.2976   -3.7378 C.ar    1  UNL1        0.0000
     14 C          -0.2617   -2.8028   -0.0414 C.ar    1  UNL1        0.0000
     15 C          -0.3568   -2.8161   -0.0465 C.ar    1  UNL1        0.0000
     16 C           0.2515   -1.2486   -2.6092 C.ar    1  UNL1        0.0000
     17 C           2.4878   -1.1371   -1.9106 C.ar    1  UNL1        0.0000
     18 N           1.2815   -0.6508    0.5617 N.ar    1  UNL1        0.0000
     19 C          -0.3813   -0.8868    0.9328 C.ar    1  UNL1        0.0000
     20 C          -1.2547   -0.8424    1.6475 C.ar    1  UNL1        0.0000
     21 N          -2.9618    0.8015   -0.5810 N.ar    1  UNL1        0.0000
     22 C          -1.3182   -0.2196   -2.0784 C.ar    1  UNL1        0.0000
     23 C          -0.7458   -4.3857   -2.0042 C.3     1  UNL1        0.0000
     24 C          -1.4996    1.0596    0.9150 C.3     1  UNL1        0.0000
     25 C           0.4145    1.3041   -2.4622 C.3     1  UNL1        0.0000
     26 C          -1.5747    0.9627    0.9208 C.3     1  UNL1        0.0000
     27 C          -2.7969   -0.3124    0.6005 C.3     1  UNL1        0.0000
     28 C           2.5887    0.4440    1.9470 C.3     1  UNL1        0.0000
     29 C           1.5620    0.9436    2.5737 C.3     1  UNL1        0.0000
     30 C          -3.0263   -2.5739    0.8983 C.3     1  UNL1        0.0000
     31 C          -1.0435    0.6849   -2.2260 C.ar    1  UNL1        0.0000
     32 N          -2.5293    3.4361    0.0938 N.ar    1  UNL1        0.0000
     33 N           0.1866    1.9930    2.4367 N.ar    1  UNL1        0.0000
     34 C          -0.3251   -0.1444    1.1279 C.ar    1  UNL1        0.0000
     35 C           0.2000    1.4321   -0.2421 C.ar    1  UNL1        0.0000
     36 H          -1.7950    0.4892    2.3726 H       1  UNL1        0.0000
     37 H          -1.0433   -4.2720    2.7160 H       1  UNL1        0.0000
     38 H          -0.3372    1.0746    3.3826 H       1  UNL1        0.0000
     39 H           0.0399   -2.9094   -1.9285 H       1  UNL1        0.0000
     40 H          -2.3944   -0.4702    2.8462 H       1  UNL1        0.0000
     41 H           3.5908   -1.5275    2.7001 H       1  UNL1        0.0000
     42 H          -2.8581   -1.0084   -1.6592 H       1  UNL1        0.0000
     43 H          -0.4089    1.5176   -4.4369 H       1  UNL1        0.0000
     44 H           2.4694    1.0931   -1.0188 H       1  UNL1        0.0000
     45 H           1.4069   -1.9681    0.5204 H       1  UNL1        0.0000
     46 H          -0.7342   -0.1899    3.3250 H       1  UNL1        0.0000
     47 H           0.2599   -3.2903   -3.1900 H       1  UNL1        0.0000
     48 H           3.9479   -1.5409   -2.0906 H       1  UNL1        0.0000
     49 H          -0.2383    1.1804    4.9011 H       1  UNL1        0.0000
     50 H          -0.9826   -3.0074    1.3430 H       1  UNL1        0.0000
     51 H          -1.1492   -1.8850   -1.7384 H       1  UNL1        0.0000
     52 H          -0.7110    3.3161   -1.0404 H       1  UNL1        0.0000
     53 H           1.4572   -3.4798   -2.5348 H       1  UNL1        0.0000
     54 H          -1.1606    2.1448   -1.2398 H       1  UNL1        0.0000
     55 H           0.8346   -1.8314   -0.6077 H       1  UNL1        0.0000
     56 H           2.9565    0.4394    0.1104 H       1  UNL1        0.0000
     57 H           1.3519   -2.7000   -3.6280 H       1  UNL1        0.0000
     58 H          -1.3567   -1.8157   -3.8157 H       1  UNL1        0.0000
     59 H           0.8801   -0.4216    2.6526 H       1  UNL1        0.0000
     60 H          -2.8749    2.2199   -0.5473 H       1  UNL1        0.0000
     61 H           1.1760    0.1696   -3.8839 H       1  UNL1        0.0000
     62 H           2.0278    1.8648   -5.0274 H       1  UNL1        0.0000
     63 H           0.9379    3.7542   -0.2053 H       1  UNL1        0.0000
     64 H           2.8570   -0.6056   -0.5779 H       1  UNL1        0.0000
     65 H          -2.2479   -2.9774    1.3343 H       1  UNL1        0.0000
     66 H          -2.3634    1.6673    1.9046 H       1  UNL1        0.0000
     67 H           2.8240    1.9612    1.6062 H       1  UNL1        0.0000
     68 EU          1.6475    1.4943   -0.1879 Eu      1  UNL1        0.0000
@<TRIPOS>BOND
     1     1     2    2
     2     2     3   am
     3     3     4    1
     4     3     5    1
     5     5     6    1
     6     6     7    1
     7     2     8    1
     8     8     9   ar
     9     9    10   ar
    10     8    11   ar
    11    11    12   ar
    12    12    13   ar
    13    10    13   ar
    14    13    14   ar
    15    14    15   ar
    16    15    16   ar
    17    16    17   ar
    18    12    17   ar
    19    17    18   ar
    20    18    19   ar
    21    19    20    1
    22    20    21   ar
    23    21    22   ar
    24    22    23    1
    25    23    24    1
    26    23    25    1
    27    23    26    1
    28    26    27    1
    29    27    28    1
    30    28    29    1
    31    28    30    1
    32    22    31   ar
    33    28    31    1
    34    31    32   ar
    35    32    33   ar
    36    20    33   ar
    37    19    34   ar
    38    34    35   ar
    39    16    35   ar
    40     4    36    1
    41     4    37    1
    42     4    38    1
    43     5    39    1
    44     5    40    1
    45     6    41    1
    46     6    42    1
    47     7    43    1
    48     7    44    1
    49     7    45    1
    50     9    46    1
    51    10    47    1
    52    14    48    1
    53    15    49    1
    54    24    50    1
    55    24    51    1
    56    24    52    1
    57    25    53    1
    58    25    54    1
    59    25    55    1
    60    26    56    1
    61    26    57    1
    62    27    58    1
    63    27    59    1
    64    29    60    1
    65    29    61    1
    66    29    62    1
    67    30    63    1
    68    30    64    1
    69    30    65    1
    70    34    66    1
    71    35    67    1
    72    68     1    1
    73    68    33    1
    74    68    18    1
    75    68    11    1
@<TRIPOS>MOLECULE
*****
 68 75 0 0 0
SMALL
GASTEIGER

@<TRIPOS>ATOM
      1 O          -0.1057   -0.2436   -0.9910 O.2     1  UNL1        0.0000
      2 C          -1.3016    0.6040   -0.6211 C.2     1  UNL1        0.0000
      3 N          -0.8949   -1.5488    3.0219 N.am    1  UNL1        0.0000
      4 C          -2.6587   -1.8076    2.3835 C.3     1  UNL1        0.0000
      5 C           0.3916   -2.2180    3.0922 C.3     1  UNL1        0.0000
      6 C           2.9465   -2.4427    2.3725 C.3     1  UNL1        0.0000
      7 C          -1.6280   -4.1811    0.1552 C.3     1  UNL1        0.0000
      8 C          -0.5131    2.5502    0.5994 C.ar    1  UNL1        0.0000
      9 C           1.2625    0.9297    1.0017 C.ar    1  UNL1        0.0000
     10 C          -0.4866   -0.4077   -4.2830 C.ar    1  UNL1        0.0000
     11 N           0.6203    2.7628   -1.1190 N.ar    1  UNL1        0.0000
     12 C           1.6019    2.3392   -2.2791 C.ar    1  UNL1        0.0000
     13 C          -1.5868    0.2976   -3.7378 C.ar    1  UNL1        0.0000
     14 C          -0.2617   -2.8028   -0.0414 C.ar    1  UNL1        0.0000
     15 C          -0.3568   -2.8161   -0.0465 C.ar    1  UNL1        0.0000
     16 C           0.2515   -1.2486   -2.6092 C.ar    1  UNL1        0.0000
     17 C           2.4878   -1.1371   -1.9106 C.ar    1  UNL1        0.0000
     18 N           1.2815   -0.6508    0.5617 N.ar    1  UNL1        0.0000
     19 C          -0.3813   -0.8868    0.9328 C.ar    1  UNL1        0.0000
     20 C          -1.2547   -0.8424    1.6475 C.ar    1  UNL1        0.0000
     21 N          -2.9618    0.8015   -0.5810 N.ar    1  UNL1        0.0000
     22 C          -1.3182   -0.2196   -2.0784 C.ar    1  UNL1        0.0000
     23 C          -0.7458   -4.3857   -2.0042 C.3     1  UNL1        0.0000
     24 C          -1.4996    1.0596    0.9150 C.3     1  UNL1        0.0000
     25 C           0.4145    1.3041   -2.4622 C.3     1  UNL1        0.0000
     26 C          -1.5747    0.9627    0.9208 C.3     1  UNL1        0.0000
     27 C          -2.7969   -0.3124    0.6005 C.3     1  UNL1        0.0000
     28 C           2.5887    0.4440    1.9470 C.3     1  UNL1        0.0000
     29 C           1.5620    0.9436    2.5737 C.3     1  UNL1        0.0000
     30 C          -3.0263   -2.5739    0.8983 C.3     1  UNL1        0.0000
     31 C          -1.0435    0.6849   -2.2260 C.ar    1  UNL1        0.0000
     32 N          -2.5293    3.4361    0.0938 N.ar    1  UNL1        0.0000
     33 N           0.1866    1.9930    2.4367 N.ar    1  UNL1        0.0000
     34 C          -0.3251   -0.1444    1.1279 C.ar    1  UNL1        0.0000
     35 C           0.2000    1.4321   -0.2421 C.ar    1  UNL1        0.0000
     36 H          -1.7950    0.4892    2.3726 H       1  UNL1        0.0000
     37 H          -1.0433   -4.2720    2.7160 H       1  UNL1        0.0000
     38 H          -0.3372    1.0746    3.3826 H       1  UNL1        0.0000
     39 H           0.0399   -2.9094   -1.9285 H       1  UNL1        0.0000
     40 H          -2.3944   -0.4702    2.8462 H       1  UNL1        0.0000
     41 H           3.5908   -1.5275    2.7001 H       1  UNL1        0.0000
     42 H          -2.8581   -1.0084   -1.6592 H       1  UNL1        0.0000
     43 H          -0.4089    1.5176   -4.4369 H       1  UNL1        0.0000
     44 H           2.4694    1.0931   -1.0188 H       1  UNL1        0.0000
     45 H           1.4069   -1.9681    0.5204 H       1  UNL1        0.0000
     46 H          -0.7342   -0.1899    3.3250 H       1  UNL1        0.0000
     47 H           0.2599   -3.2903   -3.1900 H       1  UNL1        0.0000
     48 H           3.9479   -1.5409   -2.0906 H       1  UNL1        0.0000
     49 H          -0.2383    1.1804    4.9011 H       1  UNL1        0.0000
     50 H          -0.9826   -3.0074    1.3430 H       1  UNL1        0.0000
     51 H          -1.1492   -1.8850   -1.7384 H       1  UNL1        0.0000
     52 H          -0.7110    3.3161   -1.0404 H       1  UNL1        0.0000
     53 H           1.4572   -3.4798   -2.5348 H       1  UNL1        0.0000
     54 H          -1.1606    2.1448   -1.2398 H       1  UNL1        0.0000
     55 H           0.8346   -1.8314   -0.6077 H       1  UNL1        0.0000
     56 H           2.9565    0.4394    0.1104 H       1  UNL1        0.0000
     57 H           1.3519   -2.7000   -3.6280 H       1  UNL1        0.0000
     58 H          -1.3567   -1.8157   -3.8157 H       1  UNL1        0.0000
     59 H           0.8801   -0.4216    2.6526 H       1  UNL1        0.0000
     60 H          -2.8749    2.2199   -0.5473 H       1  UNL1        0.0000
     61 H           1.1760    0.1696   -3.8839 H       1  UNL1        0.0000
     62 H           2.0278    1.8648   -5.0274 H       1  UNL1        0.0000
     63 H           0.9379    3.7542   -0.2053 H       1  UNL1        0.0000
     64 H           2.8570   -0.6056   -0.5779 H       1  UNL1        0.0000
     65 H          -2.2479   -2.9774    1.3343 H       1  UNL1        0.0000
     66 H          -2.3634    1.6673    1.9046 H       1  UNL1        0.0000
     67 H           2.8240    1.9612    1.6062 H       1  UNL1        0.0000
     68 EU          1.6475    1.4943   -0.1879 Eu      1  UNL1        0.0000
@<TRIPOS>BOND
     1     1     2    2
     2     2     3   am
     3     3     4    1
     4     3     5    1
     5     5     6    1
     6     6     7    1
     7     2     8    1
     8     8     9   ar
     9     9    10   ar
    10     8    11   ar
    11    11    12   ar
    12    12    13   ar
    13    10    13   ar
    14    13    14   ar
    15    14    15   ar
    16    15    16   ar
    17    16    17   ar
    18    12    17   ar
    19    17    18   ar
    20    18    19   ar
    21    19    20    1
    22    20    21   ar
    23    21    22   ar
    24    22    23    1
    25    23    24    1
    26    23    25    1
    27    23    26    1
    28    26    27    1
    29    27    28    1
    30    28    29    1
    31    28    30    1
    32    22    31   ar
    33    28    31    1
    34    31    32   ar
    35    32    33   ar
    36    20    33   ar
    37    19    34   ar
    38    34    35   ar
    39    16    35   ar
    40     4    36    1
    41     4    37    1
    42     4    38    1
    43     5    39    1
    44     5    40    1
    45     6    41    1
    46     6    42    1
    47     7    43    1
    48     7    44    1
    49     7    45    1
    50     9    46    1
    51    10    47    1
    52    14    48    1
    53    15    49    1
    54    24    50    1
    55    24    51    1
    56    24    52    1
    57    25    53    1
    58    25    54    1
    59    25    55    1
    60    26    56    1
    61    26    57    1
    62    27    58    1
    63    27    59    1
    64    29    60    1
    65    29    61    1
    66    29    62    1
    67    30    63    1
    68    30    64    1
    69    30    65    1
    70    34    66    1
    71    35    67    1
    72    68     1    1
    73    68    33    1
    74    68    18    1
    75    68    11    1
@<TRIPOS>MOLECULE
*****
 68 75 0 0 0
SMALL
GASTEIGER

@<TRIPOS>ATOM
      1 O          -0.1057   -0.2436   -0.9910 O.2     1  UNL1        0.0000
      2 C          -1.3016    0.6040   -0.6211 C.2     1  UNL1        0.0000
      3 N          -0.8949   -1.5488    3.0219 N.am    1  UNL1        0.0000
      4 C          -2.6587   -1.8076    2.3835 C.3     1  UNL1        0.0000
      5 C           0.3916   -2.2180    3.0922 C.3     1  UNL1        0.0000
      6 C           2.9465   -2.4427    2.3725 C.3     1  UNL1        0.0000
      7 C          -1.6280   -4.1811    0.1552 C.3     1  UNL1        0.0000
      8 C          -0.5131    2.5502    0.5994 C.ar    1  UNL1        0.0000
      9 C           1.2625    0.9297    1.0017 C.ar    1  UNL1        0.0000
     10 C          -0.4866   -0.4077   -4.2830 C.ar    1  UNL1        0.0000
     11 N           0.6203    2.7628   -1.1190 N.ar    1  UNL1        0.0000
     12 C           1.6019    2.3392   -2.2791 C.ar    1  UNL1        0.0000
     13 C          -1.5868    0.2976   -3.7378 C.ar    1  UNL1        0.0000
     14 C          -0.2617   -2.8028   -0.0414 C.ar    1  UNL1        0.0000
     15 C          -0.3568   -2.8161   -0.0465 C.ar    1  UNL1        0.0000
     16 C           0.2515   -1.2486   -2.6092 C.ar    1  UNL1        0.0000
     17 C           2.4878   -1.1371   -1.9106 C.ar    1  UNL1        0.0000
     18 N           1.2815   -0.6508    0.5617 N.ar    1  UNL1        0.0000
     19 C          -0.3813   -0.8868    0.9328 C.ar    1  UNL1        0.0000
     20 C          -1.2547   -0.8424    1.6475 C.ar    1  UNL1        0.0000
     21 N          -2.9618    0.8015   -0.5810 N.ar    1  UNL1        0.0000
     22 C          -1.3182   -0.2196   -2.0784 C.ar    1  UNL1        0.0000
     23 C          -0.7458   -4.3857   -2.0042 C.3     1  UNL1        0.0000
     24 C          -1.4996    1.0596    0.9150 C.3     1  UNL1        0.0000
     25 C           0.4145    1.3041   -2.4622 C.3     1  UNL1        0.0000
     26 C          -1.5747    0.9627    0.9208 C.3     1  UNL1        0.0000
     27 C          -2.7969   -0.3124    0.6005 C.3     1  UNL1        0.0000
     28 C           2.5887    0.4440    1.9470 C.3     1  UNL1        0.0000
     29 C           1.5620    0.9436    2.5737 C.3     1  UNL1        0.0000
     30 C          -3.0263   -2.5739    0.8983 C.3     1  UNL1        0.0000
     31 C          -1.0435    0.6849   -2.2260 C.ar    1  UNL1        0.0000
     32 N          -2.5293    3.4361    0.0938 N.ar    1  UNL1        0.0000
     33 N           0.1866    1.9930    2.4367 N.ar    1  UNL1        0.0000
     34 C          -0.3251   -0.1444    1.1279 C.ar    1  UNL1        0.0000
     35 C           0.2000    1.4321   -0.2421 C.ar    1  UNL1        0.0000
     36 H          -1.7950    0.4892    2.3726 H       1  UNL1        0.0000
     37 H          -1.0433   -4.2720    2.7160 H       1  UNL1        0.0000
     38 H          -0.3372    1.0746    3.3826 H       1  UNL1        0.0000
     39 H           0.0399   -2.9094   -1.9285 H       1  UNL1        0.0000
     40 H          -2.3944   -0.4702    2.8462 H       1  UNL1        0.0000
     41 H           3.5908   -1.5275    2.7001 H       1  UNL1        0.0000
     42 H          -2.8581   -1.0084   -1.6592 H       1  UNL1        0.0000
     43 H          -0.4089    1.5176   -4.4369 H       1  UNL1        0.0000
     44 H           2.4694    1.0931   -1.0188 H       1  UNL1        0.0000
     45 H           1.4069   -1.9681    0.5204 H       1  UNL1        0.0000
     46 H          -0.7342   -0.1899    3.3250 H       1  UNL1        0.0000
     47 H           0.2599   -3.2903   -3.1900 H       1  UNL1        0.0000
     48 H           3.9479   -1.5409   -2.0906 H       1  UNL1        0.0000
     49 H          -0.2383    1.1804    4.9011 H       1  UNL1        0.0000
     50 H          -0.9826   -3.0074    1.3430 H       1  UNL1        0.0000
     51 H          -1.1492   -1.8850   -1.7384 H       1  UNL1        0.0000
     52 H          -0.7110    3.3161   -1.0404 H       1  UNL1        0.0000
     53 H           1.4572   -3.4798   -2.5348 H       1  UNL1        0.0000
     54 H          -1.1606    2.1448   -1.2398 H       1  UNL1        0.0000
     55 H           0.8346   -1.8314   -0.6077 H       1  UNL1        0.0000
     56 H           2.9565    0.4394    0.1104 H       1  UNL1        0.0000
     57 H           1.3519   -2.7000   -3.6280 H       1  UNL1        0.0000
     58 H          -1.3567   -1.8157   -3.8157 H       1  UNL1        0.0000
     59 H           0.8801   -0.4216    2.6526 H       1  UNL1        0.0000
     60 H          -2.8749    2.2199   -0.5473 H       1  UNL1        0.0000
     61 H           1.1760    0.1696   -3.8839 H       1  UNL1        0.0000
     62 H           2.0278    1.8648   -5.0274 H       1  UNL1        0.0000
     63 H           0.9379    3.7542   -0.2053 H       1  UNL1        0.0000
     64 H           2.8570   -0.6056   -0.5779 H       1  UNL1        0.0000
     65 H          -2.2479   -2.9774    1.3343 H       1  UNL1        0.0000
     66 H          -2.3634    1.6673    1.9046 H       1  UNL1        0.0000
     67 H           2.8240    1.9612    1.6062 H       1  UNL1        0.0000
     68 EU          1.6475    1.4943   -0.1879 Eu      1  UNL1        0.0000
@<TRIPOS>BOND
     1     1     2    2
     2     2     3   am
     3     3     4    1
     4     3     5    1
     5     5     6    1
     6     6     7    1
     7     2     8    1
     8     8     9   ar
     9     9    10   ar
    10     8    11   ar
    11    11    12   ar
    12    12    13   ar
    13    10    13   ar
    14    13    14   ar
    15    14    15   ar
    16    15    16   ar
    17    16    17   ar
    18    12    17   ar
    19    17    18   ar
    20    18    19   ar
    21    19    20    1
    22    20    21   ar
    23    21    22   ar
    24    22    23    1
    25    23    24    1
    26    23    25    1
    27    23    26    1
    28    26    27    1
    29    27    28    1
    30    28    29    1
    31    28    30    1
    32    22    31   ar
    33    28    31    1
    34    31    32   ar
    35    32    33   ar
    36    20    33   ar
    37    19    34   ar
    38    34    35   ar
    39    16    35   ar
    40     4    36    1
    41     4    37    1
    42     4    38    1
    43     5    39    1
    44     5    40    1
    45     6    41    1
    46     6    42    1
    47     7    43    1
    48     7    44    1
    49     7    45    1
    50     9    46    1
    51    10    47    1
    52    14    48    1
    53    15    49    1
    54    24    50    1
    55    24    51    1
    56    24    52    1
    57    25    53    1
    58    25    54    1
    59    25    55    1
    60    26    56    1
    61    26    57    1
    62    27    58    1
    63    27    59    1
    64    29    60    1
    65    29    61    1
    66    29    62    1
    67    30    63    1
    68    30    64    1
    69    30    65    1
    70    34    66    1
    71    35    67    1
    72    68     1    1
    73    68    33    1
    74    68    18    1
    75    68    11    1
@<TRIPOS>MOLECULE
*****
 68 75 0 0 0
SMALL
GASTEIGER

@<TRIPOS>ATOM
      1 O          -0.1057   -0.2436   -0.9910 O.2     1  UNL1        0.0000
      2 C          -1.3016    0.6040   -0.6211 C.2     1  UNL1        0.0000
      3 N          -0.8949   -1.5488    3.0219 N.am    1  UNL1        0.0000
      4 C          -2.6587   -1.8076    2.3835 C.3     1  UNL1        0.0000
      5 C           0.3916   -2.2180    3.0922 C.3     1  UNL1        0.0000
      6 C           2.9465   -2.4427    2.3725 C.3     1  UNL1        0.0000
      7 C          -1.6280   -4.1811    0.1552 C.3     1  UNL1        0.0000
      8 C          -0.5131    2.5502    0.5994 C.ar    1  UNL1        0.0000
      9 C           1.2625    0.9297    1.0017 C.ar    1  UNL1        0.0000
     10 C          -0.4866   -0.4077   -4.2830 C.ar    1  UNL1        0.0000
     11 N           0.6203    2.7628   -1.1190 N.ar    1  UNL1        0.0000
     12 C           1.6019    2.3392   -2.2791 C.ar    1  UNL1        0.0000
     13 C          -1.5868    0.2976   -3.7378 C.ar    1  UNL1        0.0000
     14 C          -0.2617   -2.8028   -0.0414 C.ar    1  UNL1        0.0000
     15 C          -0.3568   -2.8161   -0.0465 C.ar    1  UNL1        0.0000
     16 C           0.2515   -1.2486   -2.6092 C.ar    1  UNL1        0.0000
     17 C           2.4878   -1.1371   -1.9106 C.ar    1  UNL1        0.0000
     18 N           1.2815   -0.6508    0.5617 N.ar    1  UNL1        0.0000
     19 C          -0.3813   -0.8868    0.9328 C.ar    1  UNL1        0.0000
     20 C          -1.2547   -0.8424    1.6475 C.ar    1  UNL1        0.0000
     21 N          -2.9618    0.8015   -0.5810 N.ar    1  UNL1        0.0000
     22 C          -1.3182   -0.2196   -2.0784 C.ar    1  UNL1        0.0000
     23 C          -0.7458   -4.3857   -2.0042 C.3     1  UNL1        0.0000
     24 C          -1.4996    1.0596    0.9150 C.3     1  UNL1        0.0000
     25 C           0.4145    1.3041   -2.4622 C.3     1  UNL1        0.0000
     26 C          -1.5747    0.9627    0.9208 C.3     1  UNL1        0.0000
     27 C          -2.7969   -0.3124    0.6005 C.3     1  UNL1        0.0000
     28 C           2.5887    0.4440    1.9470 C.3     1  UNL1        0.0000
     29 C           1.5620    0.9436    2.5737 C.3     1  UNL1        0.0000
     30 C          -3.0263   -2.5739    0.8983 C.3     1  UNL1        0.0000
     31 C          -1.0435    0.6849   -2.2260 C.ar    1  UNL1        0.0000
     32 N          -2.5293    3.4361    0.0938 N.ar    1  UNL1        0.0000
     33 N           0.1866    1.9930    2.4367 N.ar    1  UNL1        0.0000
     34 C          -0.3251   -0.1444    1.1279 C.ar    1  UNL1        0.0000
     35 C           0.2000    1.4321   -0.2421 C.ar    1  UNL1        0.0000
     36 H          -1.7950    0.4892    2.3726 H       1  UNL1        0.0000
     37 H          -1.0433   -4.2720    2.7160 H       1  UNL1        0.0000
     38 H          -0.3372    1.0746    3.3826 H       1  UNL1        0.0000
     39 H           0.0399   -2.9094   -1.9285 H       1  UNL1        0.0000
     40 H          -2.3944   -0.4702    2.8462 H       1  UNL1        0.0000
     41 H           3.5908   -1.5275    2.7001 H       1  UNL1        0.0000
     42 H          -2.8581   -1.0084   -1.6592 H       1  UNL1        0.0000
     43 H          -0.4089    1.5176   -4.4369 H       1  UNL1        0.0000
     44 H           2.4694    1.0931   -1.0188 H       1  UNL1        0.0000
     45 H           1.4069   -1.9681    0.5204 H       1  UNL1        0.0000
     46 H          -0.7342   -0.1899    3.3250 H       1  UNL1        0.0000
     47 H           0.2599   -3.2903   -3.1900 H       1  UNL1        0.0000
     48 H           3.9479   -1.5409   -2.0906 H       1  UNL1        0.0000
     49 H          -0.2383    1.1804    4.9011 H       1  UNL1        0.0000
     50 H          -0.9826   -3.0074    1.3430 H       1  UNL1        0.0000
     51 H          -1.1492   -1.8850   -1.7384 H       1  UNL1        0.0000
     52 H          -0.7110    3.3161   -1.0404 H       1  UNL1        0.0000
     53 H           1.4572   -3.4798   -2.5348 H       1  UNL1        0.0000
     54 H          -1.1606    2.1448   -1.2398 H       1  UNL1        0.0000
     55 H           0.8346   -1.8314   -0.6077 H       1  UNL1        0.0000
     56 H           2.9565    0.4394    0.1104 H       1  UNL1        0.0000
     57 H           1.3519   -2.7000   -3.6280 H       1  UNL1        0.0000
     58 H          -1.3567   -1.8157   -3.8157 H       1  UNL1        0.0000
     59 H           0.8801   -0.4216    2.6526 H       1  UNL1        0.0000
     60 H          -2.8749    2.2199   -0.5473 H       1  UNL1        0.0000
     61 H           1.1760    0.1696   -3.8839 H       1  UNL1        0.0000
     62 H           2.0278    1.8648   -5.0274 H       1  UNL1        0.0000
     63 H           0.9379    3.7542   -0.2053 H       1  UNL1        0.0000
     64 H           2.8570   -0.6056   -0.5779 H       1  UNL1        0.0000
     65 H          -2.2479   -2.9774    1.3343 H       1  UNL1        0.0000
     66 H          -2.3634    1.6673    1.9046 H       1  UNL1        0.0000
     67 H           2.8240    1.9612    1.6062 H       1  UNL1        0.0000
     68 EU          1.6475    1.4943   -0.1879 Eu      1  UNL1        0.0000
@<TRIPOS>BOND
     1     1     2    2
     2     2     3   am
     3     3     4    1
     4     3     5    1
     5     5     6    1
     6     6     7    1
     7     2     8    1
     8     8     9   ar
     9     9    10   ar
    10     8    11   ar
    11    11    12   ar
    12    12    13   ar
    13    10    13   ar
    14    13    14   ar
    15    14    15   ar
    16    15    16   ar
    17    16    17   ar
    18    12    17   ar
    19    17    18   ar
    20    18    19   ar
    21    19    20    1
    22    20    21   ar
    23    21    22   ar
    24    22    23    1
    25    23    24    1
    26    23    25    1
    27    23    26    1
    28    26    27    1
    29    27    28    1
    30    28    29    1
    31    28    30    1
    32    22    31   ar
    33    28    31    1
    34    31    32   ar
    35    32    33   ar
    36    20    33   ar
    37    19    34   ar
    38    34    35   ar
    39    16    35   ar
    40     4    36    1
    41     4    37    1
    42     4    38    1
    43     5    39    1
    44     5    40    1
    45     6    41    1
    46     6    42    1
    47     7    43    1
    48     7    44    1
    49     7    45    1
    50     9    46    1
    51    10    47    1
    52    14    48    1
    53    15    49    1
    54    24    50    1
    55    24    51    1
    56    24    52    1
    57    25    53    1
    58    25    54    1
    59    25    55    1
    60    26    56    1
    61    26    57    1
    62    27    58    1
    63    27    59    1
    64    29    60    1
    65    29    61    1
    66    29    62    1
    67    30    63    1
    68    30    64    1
    69    30    65    1
    70    34    66    1
    71    35    67    1
    72    68     1    1
    73    68    33    1
    74    68    18    1
    75    68    11    1
@<TRIPOS>MOLECULE
*****
 68 75 0 0 0
SMALL
GASTEIGER

@<TRIPOS>ATOM
      1 O          -0.1057   -0.2436   -0.9910 O.2     1  UNL1        0.0000
      2 C          -1.3016    0.6040   -0.6211 C.2     1  UNL1        0.0000
      3 N          -0.8949   -1.5488    3.0219 N.am    1  UNL1        0.0000
      4 C          -2.6587   -1.8076    2.3835 C.3     1  UNL1        0.0000
      5 C           0.3916   -2.2180    3.0922 C.3     1  UNL1        0.0000
      6 C           2.9465   -2.4427    2.3725 C.3     1  UNL1        0.0000
      7 C          -1.6280   -4.1811    0.1552 C.3     1  UNL1        0.0000
      8 C          -0.5131    2.5502    0.5994 C.ar    1  UNL1        0.0000
      9 C           1.2625    0.9297    1.0017 C.ar    1  UNL1        0.0000
     10 C          -0.4866   -0.4077   -4.2830 C.ar    1  UNL1        0.0000
     11 N           0.6203    2.7628   -1.1190 N.ar    1  UNL1        0.0000
     12 C           1.6019    2.3392   -2.2791 C.ar    1  UNL1        0.0000
     13 C          -1.5868    0.2976   -3.7378 C.ar    1  UNL1        0.0000
     14 C          -0.2617   -2.8028   -0.0414 C.ar    1  UNL1        0.0000
     15 C          -0.3568   -2.8161   -0.0465 C.ar    1  UNL1        0.0000
     16 C           0.2515   -1.2486   -2.6092 C.ar    1  UNL1        0.0000
     17 C           2.4878   -1.1371   -1.9106 C.ar    1  UNL1        0.0000
     18 N           1.2815   -0.6508    0.5617 N.ar    1  UNL1        0.0000
     19 C          -0.3813   -0.8868    0.9328 C.ar    1  UNL1        0.0000
     20 C          -1.2547   -0.8424    1.6475 C.ar    1  UNL1        0.0000
     21 N          -2.9618    0.8015   -0.5810 N.ar    1  UNL1        0.0000
     22 C          -1.3182   -0.2196   -2.0784 C.ar    1  UNL1        0.0000
     23 C          -0.7458   -4.3857   -2.0042 C.3     1  UNL1        0.0000
     24 C          -1.4996    1.0596    0.9150 C.3     1  UNL1        0.0000
     25 C           0.4145    1.3041   -2.4622 C.3     1  UNL1        0.0000
     26 C          -1.5747    0.9627    0.9208 C.3     1  UNL1        0.0000
     27 C          -2.7969   -0.3124    0.6005 C.3     1  UNL1        0.0000
     28 C           2.5887    0.4440    1.9470 C.3     1  UNL1        0.0000
     29 C           1.5620    0.9436    2.5737 C.3     1  UNL1        0.0000
     30 C          -3.0263   -2.5739    0.8983 C.3     1  UNL1        0.0000
     31 C          -1.0435    0.6849   -2.2260 C.ar    1  UNL1        0.0000
     32 N          -2.5293    3.4361    0.0938 N.ar    1  UNL1        0.0000
     33 N           0.1866    1.9930    2.4367 N.ar    1  UNL1        0.0000
     34 C          -0.3251   -0.1444    1.1279 C.ar    1  UNL1        0.0000
     35 C           0.2000    1.4321   -0.2421 C.ar    1  UNL1        0.0000
     36 H          -1.7950    0.4892    2.3726 H       1  UNL1        0.0000
     37 H          -1.0433   -4.2720    2.7160 H       1  UNL1        0.0000
     38 H          -0.3372    1.0746    3.3826 H       1  UNL1        0.0000
     39 H           0.0399   -2.9094   -1.9285 H       1  UNL1        0.0000
     40 H          -2.3944   -0.4702    2.8462 H       1  UNL1        0.0000
     41 H           3.5908   -1.5275    2.7001 H       1  UNL1        0.0000
     42 H          -2.8581   -1.0084   -1.6592 H       1  UNL1        0.0000
     43 H          -0.4089    1.5176   -4.4369 H       1  UNL1        0.0000
     44 H           2.4694    1.0931   -1.0188 H       1  UNL1        0.0000
     45 H           1.4069   -1.9681    0.5204 H       1  UNL1        0.0000
     46 H          -0.7342   -0.1899    3.3250 H       1  UNL1        0.0000
     47 H           0.2599   -3.2903   -3.1900 H       1  UNL1        0.0000
     48 H           3.9479   -1.5409   -2.0906 H       1  UNL1        0.0000
     49 H          -0.2383    1.1804    4.9011 H       1  UNL1        0.0000
     50 H          -0.9826   -3.0074    1.3430 H       1  UNL1        0.0000
     51 H          -1.1492   -1.8850   -1.7384 H       1  UNL1        0.0000
     52 H          -0.7110    3.3161   -1.0404 H       1  UNL1        0.0000
     53 H           1.4572   -3.4798   -2.5348 H       1  UNL1        0.0000
     54 H          -1.1606    2.1448   -1.2398 H       1  UNL1        0.0000
     55 H           0.8346   -1.8314   -0.6077 H       1  UNL1        0.0000
     56 H           2.9565    0.4394    0.1104 H       1  UNL1        0.0000
     57 H           1.3519   -2.7000   -3.6280 H       1  UNL1        0.0000
     58 H          -1.3567   -1.8157   -3.8157 H       1  UNL1        0.0000
     59 H           0.8801   -0.4216    2.6526 H       1  UNL1        0.0000
     60 H          -2.8749    2.2199   -0.5473 H       1  UNL1        0.0000
     61 H           1.1760    0.1696   -3.8839 H       1  UNL1        0.0000
     62 H           2.0278    1.8648   -5.0274 H       1  UNL1        0.0000
     63 H           0.9379    3.7542   -0.2053 H       1  UNL1        0.0000
     64 H           2.8570   -0.6056   -0.5779 H       1  UNL1        0.0000
     65 H          -2.2479   -2.9774    1.3343 H       1  UNL1        0.0000
     66 H          -2.3634    1.6673    1.9046 H       1  UNL1        0.0000
     67 H           2.8240    1.9612    1.6062 H       1  UNL1        0.0000
     68 EU          1.6475    1.4943   -0.1879 Eu      1  UNL1        0.0000
@<TRIPOS>BOND
     1     1     2    2
     2     2     3   am
     3     3     4    1
     4     3     5    1
     5     5     6    1
     6     6     7    1
     7     2     8    1
     8     8     9   ar
     9     9    10   ar
    10     8    11   ar
    11    11    12   ar
    12    12    13   ar
    13    10    13   ar
    14    13    14   ar
    15    14    15   ar
    16    15    16   ar
    17    16    17   ar
    18    12    17   ar
    19    17    18   ar
    20    18    19   ar
    21    19    20    1
    22    20    21   ar
    23    21    22   ar
    24    22    23    1
    25    23    24    1
    26    23    25    1
    27    23    26    1
    28    26    27    1
    29    27    28    1
    30    28    29    1
    31    28    30    1
    32    22    31   ar
    33    28    31    1
    34    31    32   ar
    35    32    33   ar
    36    20    33   ar
    37    19    34   ar
    38    34    35   ar
    39    16    35   ar
    40     4    36    1
    41     4    37    1
    42     4    38    1
    43     5    39    1
    44     5    40    1
    45     6    41    1
    46     6    42    1
    47     7    43    1
    48     7    44    1
    49     7    45    1
    50     9    46    1
    51    10    47    1
    52    14    48    1
    53    15    49    1
    54    24    50    1
    55    24    51    1
    56    24    52    1
    57    25    53    1
    58    25    54    1
    59    25    55    1
    60    26    56    1
    61    26    57    1
    62    27    58    1
    63    27    59    1
    64    29    60    1
    65    29    61    1
    66    29    62    1
    67    30    63    1
    68    30    64    1
    69    30    65    1
    70    34    66    1
    71    35    67    1
    72    68     1    1
    73    68    33    1
    74    68    18    1
    75    68    11    1
@<TRIPOS>MOLECULE
*****
 68 75 0 0 0
SMALL
GASTEIGER

@<TRIPOS>ATOM
      1 O          -0.1057   -0.2436   -0.9910 O.2     1  UNL1        0.0000
      2 C          -1.3016    0.6040   -0.6211 C.2     1  UNL1        0.0000
      3 N          -0.8949   -1.5488    3.0219 N.am    1  UNL1        0.0000
      4 C          -2.6587   -1.8076    2.3835 C.3     1  UNL1        0.0000
      5 C           0.3916   -2.2180    3.0922 C.3     1  UNL1        0.0000
      6 C           2.9465   -2.4427    2.3725 C.3     1  UNL1        0.0000
      7 C          -1.6280   -4.1811    0.1552 C.3     1  UNL1        0.0000
      8 C          -0.5131    2.5502    0.5994 C.ar    1  UNL1        0.0000
      9 C           1.2625    0.9297    1.0017 C.ar    1  UNL1        0.0000
     10 C          -0.4866   -0.4077   -4.2830 C.ar    1  UNL1        0.0000
     11 N           0.6203    2.7628   -1.1190 N.ar    1  UNL1        0.0000
     12 C           1.6019    2.3392   -2.2791 C.ar    1  UNL1        0.0000
     13 C          -1.5868    0.2976   -3.7378 C.ar    1  UNL1        0.0000
     14 C          -0.2617   -2.8028   -0.0414 C.ar    1  UNL1        0.0000
     15 C          -0.3568   -2.8161   -0.0465 C.ar    1  UNL1        0.0000
     16 C           0.2515   -1.2486   -2.6092 C.ar    1  UNL1        0.0000
     17 C           2.4878   -1.1371   -1.9106 C.ar    1  UNL1        0.0000
     18 N           1.2815   -0.6508    0.5617 N.ar    1  UNL1        0.0000
     19 C          -0.3813   -0.8868    0.9328 C.ar    1  UNL1        0.0000
     20 C          -1.2547   -0.8424    1.6475 C.ar    1  UNL1        0.0000
     21 N          -2.9618    0.8015   -0.5810 N.ar    1  UNL1        0.0000
     22 C          -1.3182   -0.2196   -2.0784 C.ar    1  UNL1        0.0000
     23 C          -0.7458   -4.3857   -2.0042 C.3     1  UNL1        0.0000
     24 C          -1.4996    1.0596    0.9150 C.3     1  UNL1        0.0000
     25 C           0.4145    1.3041   -2.4622 C.3     1  UNL1        0.0000
     26 C          -1.5747    0.9627    0.9208 C.3     1  UNL1        0.0000
     27 C          -2.7969   -0.3124    0.6005 C.3     1  UNL1        0.0000
     28 C           2.5887    0.4440    1.9470 C.3     1  UNL1        0.0000
     29 C           1.5620    0.9436    2.5737 C.3     1  UNL1        0.0000
     30 C          -3.0263   -2.5739    0.8983 C.3     1  UNL1        0.0000
     31 C          -1.0435    0.6849   -2.2260 C.ar    1  UNL1        0.0000
     32 N          -2.5293    3.4361    0.0938 N.ar    1  UNL1        0.0000
     33 N           0.1866    1.9930    2.4367 N.ar    1  UNL1        0.0000
     34 C          -0.3251   -0.1444    1.1279 C.ar    1  UNL1        0.0000
     35 C           0.2000    1.4321   -0.2421 C.ar    1  UNL1        0.0000
     36 H          -1.7950    0.4892    2.3726 H       1  UNL1        0.0000
     37 H          -1.0433   -4.2720    2.7160 H       1  UNL1        0.0000
     38 H          -0.3372    1.0746    3.3826 H       1  UNL1        0.0000
     39 H           0.0399   -2.9094   -1.9285 H       1  UNL1        0.0000
     40 H          -2.3944   -0.4702    2.8462 H       1  UNL1        0.0000
     41 H           3.5908   -1.5275    2.7001 H       1  UNL1        0.0000
     42 H          -2.8581   -1.0084   -1.6592 H       1  UNL1        0.0000
     43 H          -0.4089    1.5176   -4.4369 H       1  UNL1        0.0000
     44 H           2.4694    1.0931   -1.0188 H       1  UNL1        0.0000
     45 H           1.4069   -1.9681    0.5204 H       1  UNL1        0.0000
     46 H          -0.7342   -0.1899    3.3250 H       1  UNL1        0.0000
     47 H           0.2599   -3.2903   -3.1900 H       1  UNL1        0.0000
     48 H           3.9479   -1.5409   -2.0906 H       1  UNL1        0.0000
     49 H          -0.2383    1.1804    4.9011 H       1  UNL1        0.0000
     50 H          -0.9826   -3.0074    1.3430 H       1  UNL1        0.0000
     51 H          -1.1492   -1.8850   -1.7384 H       1  UNL1        0.0000
     52 H          -0.7110    3.3161   -1.0404 H       1  UNL1        0.0000
     53 H           1.4572   -3.4798   -2.5348 H       1  UNL1        0.0000
     54 H          -1.1606    2.1448   -1.2398 H       1  UNL1        0.0000
     55 H           0.8346   -1.8314   -0.6077 H       1  UNL1        0.0000
     56 H           2.9565    0.4394    0.1104 H       1  UNL1        0.0000
     57 H           1.3519   -2.7000   -3.6280 H       1  UNL1        0.0000
     58 H          -1.3567   -1.8157   -3.8157 H       1  UNL1        0.0000
     59 H           0.8801   -0.4216    2.6526 H       1  UNL1        0.0000
     60 H          -2.8749    2.2199   -0.5473 H       1  UNL1        0.0000
     61 H           1.1760    0.1696   -3.8839 H       1  UNL1        0.0000
     62 H           2.0278    1.8648   -5.0274 H       1  UNL1        0.0000
     63 H           0.9379    3.7542   -0.2053 H       1  UNL1        0.0000
     64 H           2.8570   -0.6056   -0.5779 H       1  UNL1        0.0000
     65 H          -2.2479   -2.9774    1.3343 H       1  UNL1        0.0000
     66 H          -2.3634    1.6673    1.9046 H       1  UNL1        0.0000
     67 H           2.8240    1.9612    1.6062 H       1  UNL1        0.0000
     68 EU          1.6475    1.4943   -0.1879 Eu      1  UNL1        0.0000
@<TRIPOS>BOND
     1     1     2    2
     2     2     3   am
     3     3     4    1
     4     3     5    1
     5     5     6    1
     6     6     7    1
     7     2     8    1
     8     8     9   ar
     9     9    10   ar
    10     8    11   ar
    11    11    12   ar
    12    12    13   ar
    13    10    13   ar
    14    13    14   ar
    15    14    15   ar
    16    15    16   ar
    17    16    17   ar
    18    12    17   ar
    19    17    18   ar
    20    18    19   ar
    21    19    20    1
    22    20    21   ar
    23    21    22   ar
    24    22    23    1
    25    23    24    1
    26    23    25    1
    27    23    26    1
    28    26    27    1
    29    27    28    1
    30    28    29    1
    31    28    30    1
    32    22    31   ar
    33    28    31    1
    34    31    32   ar
    35    32    33   ar
    36    20    33   ar
    37    19    34   ar
    38    34    35   ar
    39    16    35   ar
    40     4    36    1
    41     4    37    1
    42     4    38    1
    43     5    39    1
    44     5    40    1
    45     6    41    1
    46     6    42    1
    47     7    43    1
    48     7    44    1
    49     7    45    1
    50     9    46    1
    51    10    47    1
    52    14    48    1
    53    15    49    1
    54    24    50    1
    55    24    51    1
    56    24    52    1
    57    25    53    1
    58    25    54    1
    59    25    55    1
    60    26    56    1
    61    26    57    1
    62    27    58    1
    63    27    59    1
    64    29    60    1
    65    29    61    1
    66    29    62    1
    67    30    63    1
    68    30    64    1
    69    30    65    1
    70    34    66    1
    71    35    67    1
    72    68     1    1
    73    68    33    1
    74    68    18    1
    75    68    11    1
@<TRIPOS>MOLECULE
*****
 68 75 0 0 0
SMALL
GASTEIGER

@<TRIPOS>ATOM
      1 O          -0.1057   -0.2436   -0.9910 O.2     1  UNL1        0.0000
      2 C          -1.3016    0.6040   -0.6211 C.2     1  UNL1        0.0000
      3 N          -0.8949   -1.5488    3.0219 N.am    1  UNL1        0.0000
      4 C          -2.6587   -1.8076    2.3835 C.3     1  UNL1        0.0000
      5 C           0.3916   -2.2180    3.0922 C.3     1  UNL1        0.0000
      6 C           2.9465   -2.4427    2.3725 C.3     1  UNL1        0.0000
      7 C          -1.6280   -4.1811    0.1552 C.3     1  UNL1        0.0000
      8 C          -0.5131    2.5502    0.5994 C.ar    1  UNL1        0.0000
      9 C           1.2625    0.9297    1.0017 C.ar    1  UNL1        0.0000
     10 C          -0.4866   -0.4077   -4.2830 C.ar    1  UNL1        0.0000
     11 N           0.6203    2.7628   -1.1190 N.ar    1  UNL1        0.0000
     12 C           1.6019    2.3392   -2.2791 C.ar    1  UNL1        0.0000
     13 C          -1.5868    0.2976   -3.7378 C.ar    1  UNL1        0.0000
     14 C          -0.2617   -2.8028   -0.0414 C.ar    1  UNL1        0.0000
     15 C          -0.3568   -2.8161   -0.0465 C.ar    1  UNL1        0.0000
     16 C           0.2515   -1.2486   -2.6092 C.ar    1  UNL1        0.0000
     17 C           2.4878   -1.1371   -1.9106 C.ar    1  UNL1        0.0000
     18 N           1.2815   -0.6508    0.5617 N.ar    1  UNL1        0.0000
     19 C          -0.3813   -0.8868    0.9328 C.ar    1  UNL1        0.0000
     20 C          -1.2547   -0.8424    1.6475 C.ar    1  UNL1        0.0000
     21 N          -2.9618    0.8015   -0.5810 N.ar    1  UNL1        0.0000
     22 C          -1.3182   -0.2196   -2.0784 C.ar    1  UNL1        0.0000
     23 C          -0.7458   -4.3857   -2.0042 C.3     1  UNL1        0.0000
     24 C          -1.4996    1.0596    0.9150 C.3     1  UNL1        0.0000
     25 C           0.4145    1.3041   -2.4622 C.3     1  UNL1        0.0000
     26 C          -1.5747    0.9627    0.9208 C.3     1  UNL1        0.0000
     27 C          -2.7969   -0.3124    0.6005 C.3     1  UNL1        0.0000
     28 C           2.5887    0.4440    1.9470 C.3     1  UNL1        0.0000
     29 C           1.5620    0.9436    2.5737 C.3     1  UNL1        0.0000
     30 C          -3.0263   -2.5739    0.8983 C.3     1  UNL1        0.0000
     31 C          -1.0435    0.6849   -2.2260 C.ar    1  UNL1        0.0000
     32 N          -2.5293    3.4361    0.0938 N.ar    1  UNL1        0.0000
     33 N           0.1866    1.9930    2.4367 N.ar    1  UNL1        0.0000
     34 C          -0.3251   -0.1444    1.1279 C.ar    1  UNL1        0.0000
     35 C           0.2000    1.4321   -0.2421 C.ar    1  UNL1        0.0000
     36 H          -1.7950    0.4892    2.3726 H       1  UNL1        0.0000
     37 H          -1.0433   -4.2720    2.7160 H       1  UNL1        0.0000
     38 H          -0.3372    1.0746    3.3826 H       1  UNL1        0.0000
     39 H           0.0399   -2.9094   -1.9285 H       1  UNL1        0.0000
     40 H          -2.3944   -0.4702    2.8462 H       1  UNL1        0.0000
     41 H           3.5908   -1.5275    2.7001 H       1  UNL1        0.0000
     42 H          -2.8581   -1.0084   -1.6592 H       1  UNL1        0.0000
     43 H          -0.4089    1.5176   -4.4369 H       1  UNL1        0.0000
     44 H           2.4694    1.0931   -1.0188 H       1  UNL1        0.0000
     45 H           1.4069   -1.9681    0.5204 H       1  UNL1        0.0000
     46 H          -0.7342   -0.1899    3.3250 H       1  UNL1        0.0000
     47 H           0.2599   -3.2903   -3.1900 H       1  UNL1        0.0000
     48 H           3.9479   -1.5409   -2.0906 H       1  UNL1        0.0000
     49 H          -0.2383    1.1804    4.9011 H       1  UNL1        0.0000
     50 H          -0.9826   -3.0074    1.3430 H       1  UNL1        0.0000
     51 H          -1.1492   -1.8850   -1.7384 H       1  UNL1        0.0000
     52 H          -0.7110    3.3161   -1.0404 H       1  UNL1        0.0000
     53 H           1.4572   -3.4798   -2.5348 H       1  UNL1        0.0000
     54 H          -1.1606    2.1448   -1.2398 H       1  UNL1        0.0000
     55 H           0.8346   -1.8314   -0.6077 H       1  UNL1        0.0000
     56 H           2.9565    0.4394    0.1104 H       1  UNL1        0.0000
     57 H           1.3519   -2.7000   -3.6280 H       1  UNL1        0.0000
     58 H          -1.3567   -1.8157   -3.8157 H       1  UNL1        0.0000
     59 H           0.8801   -0.4216    2.6526 H       1  UNL1        0.0000
     60 H          -2.8749    2.2199   -0.5473 H       1  UNL1        0.0000
     61 H           1.1760    0.1696   -3.8839 H       1  UNL1        0.0000
     62 H           2.0278    1.8648   -5.0274 H       1  UNL1        0.0000
     63 H           0.9379    3.7542   -0.2053 H       1  UNL1        0.0000
     64 H           2.8570   -0.6056   -0.5779 H       1  UNL1        0.0000
     65 H          -2.2479   -2.9774    1.3343 H       1  UNL1        0.0000
     66 H          -2.3634    1.6673    1.9046 H       1  UNL1        0.0000
     67 H           2.8240    1.9612    1.6062 H       1  UNL1        0.0000
     68 EU          1.6475    1.4943   -0.1879 Eu      1  UNL1        0.0000
@<TRIPOS>BOND
     1     1     2    2
     2     2     3   am
     3     3     4    1
     4     3     5    1
     5     5     6    1
     6     6     7    1
     7     2     8    1
     8     8     9   ar
     9     9    10   ar
    10     8    11   ar
    11    11    12   ar
    12    12    13   ar
    13    10    13   ar
    14    13    14   ar
    15    14    15   ar
    16    15    16   ar
    17    16    17   ar
    18    12    17   ar
    19    17    18   ar
    20    18    19   ar
    21    19    20    1
    22    20    21   ar
    23    21    22   ar
    24    22    23    1
    25    23    24    1
    26    23    25    1
    27    23    26    1
    28    26    27    1
    29    27    28    1
    30    28    29    1
    31    28    30    1
    32    22    31   ar
    33    28    31    1
    34    31    32   ar
    35    32    33   ar
    36    20    33   ar
    37    19    34   ar
    38    34    35   ar
    39    16    35   ar
    40     4    36    1
    41     4    37    1
    42     4    38    1
    43     5    39    1
    44     5    40    1
    45     6    41    1
    46     6    42    1
    47     7    43    1
    48     7    44    1
    49     7    45    1
    50     9    46    1
    51    10    47    1
    52    14    48    1
    53    15    49    1
    54    24    50    1
    55    24    51    1
    56    24    52    1
    57    25    53    1
    58    25    54    1
    59    25    55    1
    60    26    56    1
    61    26    57    1
    62    27    58    1
    63    27    59    1
    64    29    60    1
    65    29    61    1
    66    29    62    1
    67    30    63    1
    68    30    64    1
    69    30    65    1
    70    34    66    1
    71    35    67    1
    72    68     1    1
    73    68    33    1
    74    68    18    1
    75    68    11    1
@<TRIPOS>MOLECULE
*****
 68 75 0 0 0
SMALL
GASTEIGER

@<TRIPOS>ATOM
      1 O          -0.1057   -0.2436   -0.9910 O.2     1  UNL1        0.0000
      2 C          -1.3016    0.6040   -0.6211 C.2     1  UNL1        0.0000
      3 N          -0.8949   -1.5488    3.0219 N.am    1  UNL1        0.0000
      4 C          -2.6587   -1.8076    2.3835 C.3     1  UNL1        0.0000
      5 C           0.3916   -2.2180    3.0922 C.3     1  UNL1        0.0000
      6 C           2.9465   -2.4427    2.3725 C.3     1  UNL1        0.0000
      7 C          -1.6280   -4.1811    0.1552 C.3     1  UNL1        0.0000
      8 C          -0.5131    2.5502    0.5994 C.ar    1  UNL1        0.0000
      9 C           1.2625    0.9297    1.0017 C.ar    1  UNL1        0.0000
     10 C          -0.4866   -0.4077   -4.2830 C.ar    1  UNL1        0.0000
     11 N           0.6203    2.7628   -1.1190 N.ar    1  UNL1        0.0000
     12 C           1.6019    2.3392   -2.2791 C.ar    1  UNL1        0.0000
     13 C          -1.5868    0.2976   -3.7378 C.ar    1  UNL1        0.0000
     14 C          -0.2617   -2.8028   -0.0414 C.ar    1  UNL1        0.0000
     15 C          -0.3568   -2.8161   -0.0465 C.ar    1  UNL1        0.0000
     16 C           0.2515   -1.2486   -2.6092 C.ar    1  UNL1        0.0000
     17 C           2.4878   -1.1371   -1.9106 C.ar    1  UNL1        0.0000
     18 N           1.2815   -0.6508    0.5617 N.ar    1  UNL1        0.0000
     19 C          -0.3813   -0.8868    0.9328 C.ar    1  UNL1        0.0000
     20 C          -1.2547   -0.8424    1.6475 C.ar    1  UNL1        0.0000
     21 N          -2.9618    0.8015   -0.5810 N.ar    1  UNL1        0.0000
     22 C          -1.3182   -0.2196   -2.0784 C.ar    1  UNL1        0.0000
     23 C          -0.7458   -4.3857   -2.0042 C.3     1  UNL1        0.0000
     24 C          -1.4996    1.0596    0.9150 C.3     1  UNL1        0.0000
     25 C           0.4145    1.3041   -2.4622 C.3     1  UNL1        0.0000
     26 C          -1.5747    0.9627    0.9208 C.3     1  UNL1        0.0000
     27 C          -2.7969   -0.3124    0.6005 C.3     1  UNL1        0.0000
     28 C           2.5887    0.4440    1.9470 C.3     1  UNL1        0.0000
     29 C           1.5620    0.9436    2.5737 C.3     1  UNL1        0.0000
     30 C          -3.0263   -2.5739    0.8983 C.3     1  UNL1        0.0000
     31 C          -1.0435    0.6849   -2.2260 C.ar    1  UNL1        0.0000
     32 N          -2.5293    3.4361    0.0938 N.ar    1  UNL1        0.0000
     33 N           0.1866    1.9930    2.4367 N.ar    1  UNL1        0.0000
     34 C          -0.3251   -0.1444    1.1279 C.ar    1  UNL1        0.0000
     35 C           0.2000    1.4321   -0.2421 C.ar    1  UNL1        0.0000
     36 H          -1.7950    0.4892    2.3726 H       1  UNL1        0.0000
     37 H          -1.0433   -4.2720    2.7160 H       1  UNL1        0.0000
     38 H          -0.3372    1.0746    3.3826 H       1  UNL1        0.0000
     39 H           0.0399   -2.9094   -1.9285 H       1  UNL1        0.0000
     40 H          -2.3944   -0.4702    2.8462 H       1  UNL1        0.0000
     41 H           3.5908   -1.5275    2.7001 H       1  UNL1        0.0000
     42 H          -2.8581   -1.0084   -1.6592 H       1  UNL1        0.0000
     43 H          -0.4089    1.5176   -4.4369 H       1  UNL1        0.0000
     44 H           2.4694    1.0931   -1.0188 H       1  UNL1        0.0000
     45 H           1.4069   -1.9681    0.5204 H       1  UNL1        0.0000
     46 H          -0.7342   -0.1899    3.3250 H       1  UNL1        0.0000
     47 H           0.2599   -3.2903   -3.1900 H       1  UNL1        0.0000
     48 H           3.9479   -1.5409   -2.0906 H       1  UNL1        0.0000
     49 H          -0.2383    1.1804    4.9011 H       1  UNL1        0.0000
     50 H          -0.9826   -3.0074    1.3430 H       1  UNL1        0.0000
     51 H          -1.1492   -1.8850   -1.7384 H       1  UNL1        0.0000
     52 H          -0.7110    3.3161   -1.0404 H       1  UNL1        0.0000
     53 H           1.4572   -3.4798   -2.5348 H       1  UNL1        0.0000
     54 H          -1.1606    2.1448   -1.2398 H       1  UNL1        0.0000
     55 H           0.8346   -1.8314   -0.6077 H       1  UNL1        0.0000
     56 H           2.9565    0.4394    0.1104 H       1  UNL1        0.0000
     57 H           1.3519   -2.7000   -3.6280 H       1  UNL1        0.0000
     58 H          -1.3567   -1.8157   -3.8157 H       1  UNL1        0.0000
     59 H           0.8801   -0.4216    2.6526 H       1  UNL1        0.0000
     60 H          -2.8749    2.2199   -0.5473 H       1  UNL1        0.0000
     61 H           1.1760    0.1696   -3.8839 H       1  UNL1        0.0000
     62 H           2.0278    1.8648   -5.0274 H       1  UNL1        0.0000
     63 H           0.9379    3.7542   -0.2053 H       1  UNL1        0.0000
     64 H           2.8570   -0.6056   -0.5779 H       1  UNL1        0.0000
     65 H          -2.2479   -2.9774    1.3343 H       1  UNL1        0.0000
     66 H          -2.3634    1.6673    1.9046 H       1  UNL1        0.0000
     67 H           2.8240    1.9612    1.6062 H       1  UNL1        0.0000
     68 EU          1.6475    1.4943   -0.1879 Eu      1  UNL1        0.0000
@<TRIPOS>BOND
     1     1     2    2
     2     2     3   am
     3     3     4    1
     4     3     5    1
     5     5     6    1
     6     6     7    1
     7     2     8    1
     8     8     9   ar
     9     9    10   ar
    10     8    11   ar
    11    11    12   ar
    12    12    13   ar
    13    10    13   ar
    14    13    14   ar
    15    14    15   ar
    16    15    16   ar
    17    16    17   ar
    18    12    17   ar
    19    17    18   ar
    20    18    19   ar
    21    19    20    1
    22    20    21   ar
    23    21    22   ar
    24    22    23    1
    25    23    24    1
    26    23    25    1
    27    23    26    1
    28    26    27    1
    29    27    28    1
    30    28    29    1
    31    28    30    1
    32    22    31   ar
    33    28    31    1
    34    31    32   ar
    35    32    33   ar
    36    20    33   ar
    37    19    34   ar
    38    34    35   ar
    39    16    35   ar
    40     4    36    1
    41     4    37    1
    42     4    38    1
    43     5    39    1
    44     5    40    1
    45     6    41    1
    46     6    42    1
    47     7    43    1
    48     7    44    1
    49     7    45    1
    50     9    46    1
    51    10    47    1
    52    14    48    1
    53    15    49    1
    54    24    50    1
    55    24    51    1
    56    24    52    1
    57    25    53    1
    58    25    54    1
    59    25    55    1
    60    26    56    1
    61    26    57    1
    62    27    58    1
    63    27    59    1
    64    29    60    1
    65    29    61    1
    66    29    62    1
    67    30    63    1
    68    30    64    1
    69    30    65    1
    70    34    66    1
    71    35    67    1
    72    68     1    1
    73    68    33    1
    74    68    18    1
    75    68    11    1
@<TRIPOS>MOLECULE
*****
 68 75 0 0 0
SMALL
GASTEIGER

@<TRIPOS>ATOM
      1 O          -0.1057   -0.2436   -0.9910 O.2     1  UNL1        0.0000
      2 C          -1.3016    0.6040   -0.6211 C.2     1  UNL1        0.0000
      3 N          -0.8949   -1.5488    3.0219 N.am    1  UNL1        0.0000
      4 C          -2.6587   -1.8076    2.3835 C.3     1  UNL1        0.0000
      5 C           0.3916   -2.2180    3.0922 C.3     1  UNL1        0.0000
      6 C           2.9465   -2.4427    2.3725 C.3     1  UNL1        0.0000
      7 C          -1.6280   -4.1811    0.1552 C.3     1  UNL1        0.0000
      8 C          -0.5131    2.5502    0.5994 C.ar    1  UNL1        0.0000
      9 C           1.2625    0.9297    1.0017 C.ar    1  UNL1        0.0000
     10 C          -0.4866   -0.4077   -4.2830 C.ar    1  UNL1        0.0000
     11 N           0.6203    2.7628   -1.1190 N.ar    1  UNL1        0.0000
     12 C           1.6019    2.3392   -2.2791 C.ar    1  UNL1        0.0000
     13 C          -1.5868    0.2976   -3.7378 C.ar    1  UNL1        0.0000
     14 C          -0.2617   -2.8028   -0.0414 C.ar    1  UNL1        0.0000
     15 C          -0.3568   -2.8161   -0.0465 C.ar    1  UNL1        0.0000
     16 C           0.2515   -1.2486   -2.6092 C.ar    1  UNL1        0.0000
     17 C           2.4878   -1.1371   -1.9106 C.ar    1  UNL1        0.0000
     18 N           1.2815   -0.6508    0.5617 N.ar    1  UNL1        0.0000
     19 C          -0.3813   -0.8868    0.9328 C.ar    1  UNL1        0.0000
     20 C          -1.2547   -0.8424    1.6475 C.ar    1  UNL1        0.0000
     21 N          -2.9618    0.8015   -0.5810 N.ar    1  UNL1        0.0000
     22 C          -1.3182   -0.2196   -2.0784 C.ar    1  UNL1        0.0000
     23 C          -0.7458   -4.3857   -2.0042 C.3     1  UNL1        0.0000
     24 C          -1.4996    1.0596    0.9150 C.3     1  UNL1        0.0000
     25 C           0.4145    1.3041   -2.4622 C.3     1  UNL1        0.0000
     26 C          -1.5747    0.9627    0.9208 C.3     1  UNL1        0.0000
     27 C          -2.7969   -0.3124    0.6005 C.3     1  UNL1        0.0000
     28 C           2.5887    0.4440    1.9470 C.3     1  UNL1        0.0000
     29 C           1.5620    0.9436    2.5737 C.3     1  UNL1        0.0000
     30 C          -3.0263   -2.5739    0.8983 C.3     1  UNL1        0.0000
     31 C          -1.0435    0.6849   -2.2260 C.ar    1  UNL1        0.0000
     32 N          -2.5293    3.4361    0.0938 N.ar    1  UNL1        0.0000
     33 N           0.1866    1.9930    2.4367 N.ar    1  UNL1        0.0000
     34 C          -0.3251   -0.1444    1.1279 C.ar    1  UNL1        0.0000
     35 C           0.2000    1.4321   -0.2421 C.ar    1  UNL1        0.0000
     36 H          -1.7950    0.4892    2.3726 H       1  UNL1        0.0000
     37 H          -1.0433   -4.2720    2.7160 H       1  UNL1        0.0000
     38 H          -0.3372    1.0746    3.3826 H       1  UNL1        0.0000
     39 H           0.0399   -2.9094   -1.9285 H       1  UNL1        0.0000
     40 H          -2.3944   -0.4702    2.8462 H       1  UNL1        0.0000
     41 H           3.5908   -1.5275    2.7001 H       1  UNL1        0.0000
     42 H          -2.8581   -1.0084   -1.6592 H       1  UNL1        0.0000
     43 H          -0.4089    1.5176   -4.4369 H       1  UNL1        0.0000
     44 H           2.4694    1.0931   -1.0188 H       1  UNL1        0.0000
     45 H           1.4069   -1.9681    0.5204 H       1  UNL1        0.0000
     46 H          -0.7342   -0.1899    3.3250 H       1  UNL1        0.0000
     47 H           0.2599   -3.2903   -3.1900 H       1  UNL1        0.0000
     48 H           3.9479   -1.5409   -2.0906 H       1  UNL1        0.0000
     49 H          -0.2383    1.1804    4.9011 H       1  UNL1        0.0000
     50 H          -0.9826   -3.0074    1.3430 H       1  UNL1        0.0000
     51 H          -1.1492   -1.8850   -1.7384 H       1  UNL1        0.0000
     52 H          -0.7110    3.3161   -1.0404 H       1  UNL1        0.0000
     53 H           1.4572   -3.4798   -2.5348 H       1  UNL1        0.0000
     54 H          -1.1606    2.1448   -1.2398 H       1  UNL1        0.0000
     55 H           0.8346   -1.8314   -0.6077 H       1  UNL1        0.0000
     56 H           2.9565    0.4394    0.1104 H       1  UNL1        0.0000
     57 H           1.3519   -2.7000   -3.6280 H       1  UNL1        0.0000
     58 H          -1.3567   -1.8157   -3.8157 H       1  UNL1        0.0000
     59 H           0.8801   -0.4216    2.6526 H       1  UNL1        0.0000
     60 H          -2.8749    2.2199   -0.5473 H       1  UNL1        0.0000
     61 H           1.1760    0.1696   -3.8839 H       1  UNL1        0.0000
     62 H           2.0278    1.8648   -5.0274 H       1  UNL1        0.0000
     63 H           0.9379    3.7542   -0.2053 H       1  UNL1        0.0000
     64 H           2.8570   -0.6056   -0.5779 H       1  UNL1        0.0000
     65 H          -2.2479   -2.9774    1.3343 H       1  UNL1        0.0000
     66 H          -2.3634    1.6673    1.9046 H       1  UNL1        0.0000
     67 H           2.8240    1.9612    1.6062 H       1  UNL1        0.0000
     68 EU          1.6475    1.4943   -0.1879 Eu      1  UNL1        0.0000
@<TRIPOS>BOND
     1     1     2    2
     2     2     3   am
     3     3     4    1
     4     3     5    1
     5     5     6    1
     6     6     7    1
     7     2     8    1
     8     8     9   ar
     9     9    10   ar
    10     8    11   ar
    11    11    12   ar
    12    12    13   ar
    13    10    13   ar
    14    13    14   ar
    15    14    15   ar
    16    15    16   ar
    17    16    17   ar
    18    12    17   ar
    19    17    18   ar
    20    18    19   ar
    21    19    20    1
    22    20    21   ar
    23    21    22   ar
    24    22    23    1
    25    23    24    1
    26    23    25    1
    27    23    26    1
    28    26    27    1
    29    27    28    1
    30    28    29    1
    31    28    30    1
    32    22    31   ar
    33    28    31    1
    34    31    32   ar
    35    32    33   ar
    36    20    33   ar
    37    19    34   ar
    38    34    35   ar
    39    16    35   ar
    40     4    36    1
    41     4    37    1
    42     4    38    1
    43     5    39    1
    44     5    40    1
    45     6    41    1
    46     6    42    1
    47     7    43    1
    48     7    44    1
    49     7    45    1
    50     9    46    1
    51    10    47    1
    52    14    48    1
    53    15    49    1
    54    24    50    1
    55    24    51    1
    56    24    52    1
    57    25    53    1
    58    25    54    1
    59    25    55    1
    60    26    56    1
    61    26    57    1
    62    27    58    1
    63    27    59    1
    64    29    60    1
    65    29    61    1
    66    29    62    1
    67    30    63    1
    68    30    64    1
    69    30    65    1
    70    34    66    1
    71    35    67    1
    72    68     1    1
    73    68    33    1
    74    68    18    1
    75    68    11    1
@<TRIPOS>MOLECULE
*****
 68 75 0 0 0
SMALL
GASTEIGER

@<TRIPOS>ATOM
      1 O          -0.1057   -0.2436   -0.9910 O.2     1  UNL1        0.0000
      2 C          -1.3016    0.6040   -0.6211 C.2     1  UNL1        0.0000
      3 N          -0.8949   -1.5488    3.0219 N.am    1  UNL1        0.0000
      4 C          -2.6587   -1.8076    2.3835 C.3     1  UNL1        0.0000
      5 C           0.3916   -2.2180    3.0922 C.3     1  UNL1        0.0000
      6 C           2.9465   -2.4427    2.3725 C.3     1  UNL1        0.0000
      7 C          -1.6280   -4.1811    0.1552 C.3     1  UNL1        0.0000
      8 C          -0.5131    2.5502    0.5994 C.ar    1  UNL1        0.0000
      9 C           1.2625    0.9297    1.0017 C.ar    1  UNL1        0.0000
     10 C          -0.4866   -0.4077   -4.2830 C.ar    1  UNL1        0.0000
     11 N           0.6203    2.7628   -1.1190 N.ar    1  UNL1        0.0000
     12 C           1.6019    2.3392   -2.2791 C.ar    1  UNL1        0.0000
     13 C          -1.5868    0.2976   -3.7378 C.ar    1  UNL1        0.0000
     14 C          -0.2617   -2.8028   -0.0414 C.ar    1  UNL1        0.0000
     15 C          -0.3568   -2.8161   -0.0465 C.ar    1  UNL1        0.0000
     16 C           0.2515   -1.2486   -2.6092 C.ar    1  UNL1        0.0000
     17 C           2.4878   -1.1371   -1.9106 C.ar    1  UNL1        0.0000
     18 N           1.2815   -0.6508    0.5617 N.ar    1  UNL1        0.0000
     19 C          -0.3813   -0.8868    0.9328 C.ar    1  UNL1        0.0000
     20 C          -1.2547   -0.8424    1.6475 C.ar    1  UNL1        0.0000
     21 N          -2.9618    0.8015   -0.5810 N.ar    1  UNL1        0.0000
     22 C          -1.3182   -0.2196   -2.0784 C.ar    1  UNL1        0.0000
     23 C          -0.7458   -4.3857   -2.0042 C.3     1  UNL1        0.0000
     24 C          -1.4996    1.0596    0.9150 C.3     1  UNL1        0.0000
     25 C           0.4145    1.3041   -2.4622 C.3     1  UNL1        0.0000
     26 C          -1.5747    0.9627    0.9208 C.3     1  UNL1        0.0000
     27 C          -2.7969   -0.3124    0.6005 C.3     1  UNL1        0.0000
     28 C           2.5887    0.4440    1.9470 C.3     1  UNL1        0.0000
     29 C           1.5620    0.9436    2.5737 C.3     1  UNL1        0.0000
     30 C          -3.0263   -2.5739    0.8983 C.3     1  UNL1        0.0000
     31 C          -1.0435    0.6849   -2.2260 C.ar    1  UNL1        0.0000
     32 N          -2.5293    3.4361    0.0938 N.ar    1  UNL1        0.0000
     33 N           0.1866    1.9930    2.4367 N.ar    1  UNL1        0.0000
     34 C          -0.3251   -0.1444    1.1279 C.ar    1  UNL1        0.0000
     35 C           0.2000    1.4321   -0.2421 C.ar    1  UNL1        0.0000
     36 H          -1.7950    0.4892    2.3726 H       1  UNL1        0.0000
     37 H          -1.0433   -4.2720    2.7160 H       1  UNL1        0.0000
     38 H          -0.3372    1.0746    3.3826 H       1  UNL1        0.0000
     39 H           0.0399   -2.9094   -1.9285 H       1  UNL1        0.0000
     40 H          -2.3944   -0.4702    2.8462 H       1  UNL1        0.0000
     41 H           3.5908   -1.5275    2.7001 H       1  UNL1        0.0000
     42 H          -2.8581   -1.0084   -1.6592 H       1  UNL1        0.0000
     43 H          -0.4089    1.5176   -4.4369 H       1  UNL1        0.0000
     44 H           2.4694    1.0931   -1.0188 H       1  UNL1        0.0000
     45 H           1.4069   -1.9681    0.5204 H       1  UNL1        0.0000
     46 H          -0.7342   -0.1899    3.3250 H       1  UNL1        0.0000
     47 H           0.2599   -3.2903   -3.1900 H       1  UNL1        0.0000
     48 H           3.9479   -1.5409   -2.0906 H       1  UNL1        0.0000
     49 H          -0.2383    1.1804    4.9011 H       1  UNL1        0.0000
     50 H          -0.9826   -3.0074    1.3430 H       1  UNL1        0.0000
     51 H          -1.1492   -1.8850   -1.7384 H       1  UNL1        0.0000
     52 H          -0.7110    3.3161   -1.0404 H       1  UNL1        0.0000
     53 H           1.4572   -3.4798   -2.5348 H       1  UNL1        0.0000
     54 H          -1.1606    2.1448   -1.2398 H       1  UNL1        0.0000
     55 H           0.8346   -1.8314   -0.6077 H       1  UNL1        0.0000
     56 H           2.9565    0.4394    0.1104 H       1  UNL1        0.0000
     57 H           1.3519   -2.7000   -3.6280 H       1  UNL1        0.0000
     58 H          -1.3567   -1.8157   -3.8157 H       1  UNL1        0.0000
     59 H           0.8801   -0.4216    2.6526 H       1  UNL1        0.0000
     60 H          -2.8749    2.2199   -0.5473 H       1  UNL1        0.0000
     61 H           1.1760    0.1696   -3.8839 H       1  UNL1        0.0000
     62 H           2.0278    1.8648   -5.0274 H       1  UNL1        0.0000
     63 H           0.9379    3.7542   -0.2053 H       1  UNL1        0.0000
     64 H           2.8570   -0.6056   -0.5779 H       1  UNL1        0.0000
     65 H          -2.2479   -2.9774    1.3343 H       1  UNL1        0.0000
     66 H          -2.3634    1.6673    1.9046 H       1  UNL1        0.0000
     67 H           2.8240    1.9612    1.6062 H       1  UNL1        0.0000
     68 EU          1.6475    1.4943   -0.1879 Eu      1  UNL1        0.0000
@<TRIPOS>BOND
     1     1     2    2
     2     2     3   am
     3     3     4    1
     4     3     5    1
     5     5     6    1
     6     6     7    1
     7     2     8    1
     8     8     9   ar
     9     9    10   ar
    10     8    11   ar
    11    11    12   ar
    12    12    13   ar
    13    10    13   ar
    14    13    14   ar
    15    14    15   ar
    16    15    16   ar
    17    16    17   ar
    18    12    17   ar
    19    17    18   ar
    20    18    19   ar
    21    19    20    1
    22    20    21   ar
    23    21    22   ar
    24    22    23    1
    25    23    24    1
    26    23    25    1
    27    23    26    1
    28    26    27    1
    29    27    28    1
    30    28    29    1
    31    28    30    1
    32    22    31   ar
    33    28    31    1
    34    31    32   ar
    35    32    33   ar
    36    20    33   ar
    37    19    34   ar
    38    34    35   ar
    39    16    35   ar
    40     4    36    1
    41     4    37    1
    42     4    38    1
    43     5    39    1
    44     5    40    1
    45     6    41    1
    46     6    42    1
    47     7    43    1
    48     7    44    1
    49     7    45    1
    50     9    46    1
    51    10    47    1
    52    14    48    1
    53    15    49    1
    54    24    50    1
    55    24    51    1
    56    24    52    1
    57    25    53    1
    58    25    54    1
    59    25    55    1
    60    26    56    1
    61    26    57    1
    62    27    58    1
    63    27    59    1
    64    29    60    1
    65    29    61    1
    66    29    62    1
    67    30    63    1
    68    30    64    1
    69    30    65    1
    70    34    66    1
    71    35    67    1
    72    68     1    1
    73    68    33    1
    74    68    18    1
    75    68    11    1
@<TRIPOS>MOLECULE
*****
 68 75 0 0 0
SMALL
GASTEIGER

@<TRIPOS>ATOM
      1 O          -0.1057   -0.2436   -0.9910 O.2     1  UNL1        0.0000
      2 C          -1.3016    0.6040   -0.6211 C.2     1  UNL1        0.0000
      3 N          -0.8949   -1.5488    3.0219 N.am    1  UNL1        0.0000
      4 C          -2.6587   -1.8076    2.3835 C.3     1  UNL1        0.0000
      5 C           0.3916   -2.2180    3.0922 C.3     1  UNL1        0.0000
      6 C           2.9465   -2.4427    2.3725 C.3     1  UNL1        0.0000
      7 C          -1.6280   -4.1811    0.1552 C.3     1  UNL1        0.0000
      8 C          -0.5131    2.5502    0.5994 C.ar    1  UNL1        0.0000
      9 C           1.2625    0.9297    1.0017 C.ar    1  UNL1        0.0000
     10 C          -0.4866   -0.4077   -4.2830 C.ar    1  UNL1        0.0000
     11 N           0.6203    2.7628   -1.1190 N.ar    1  UNL1        0.0000
     12 C           1.6019    2.3392   -2.2791 C.ar    1  UNL1        0.0000
     13 C          -1.5868    0.2976   -3.7378 C.ar    1  UNL1        0.0000
     14 C          -0.2617   -2.8028   -0.0414 C.ar    1  UNL1        0.0000
     15 C          -0.3568   -2.8161   -0.0465 C.ar    1  UNL1        0.0000
     16 C           0.2515   -1.2486   -2.6092 C.ar    1  UNL1        0.0000
     17 C           2.4878   -1.1371   -1.9106 C.ar    1  UNL1        0.0000
     18 N           1.2815   -0.6508    0.5617 N.ar    1  UNL1        0.0000
     19 C          -0.3813   -0.8868    0.9328 C.ar    1  UNL1        0.0000
     20 C          -1.2547   -0.8424    1.6475 C.ar    1  UNL1        0.0000
     21 N          -2.9618    0.8015   -0.5810 N.ar    1  UNL1        0.0000
     22 C          -1.3182   -0.2196   -2.0784 C.ar    1  UNL1        0.0000
     23 C          -0.7458   -4.3857   -2.0042 C.3     1  UNL1        0.0000
     24 C          -1.4996    1.0596    0.9150 C.3     1  UNL1        0.0000
     25 C           0.4145    1.3041   -2.4622 C.3     1  UNL1        0.0000
     26 C          -1.5747    0.9627    0.9208 C.3     1  UNL1        0.0000
     27 C          -2.7969   -0.3124    0.6005 C.3     1  UNL1        0.0000
     28 C           2.5887    0.4440    1.9470 C.3     1  UNL1        0.0000
     29 C           1.5620    0.9436    2.5737 C.3     1  UNL1        0.0000
     30 C          -3.0263   -2.5739    0.8983 C.3     1  UNL1        0.0000
     31 C          -1.0435    0.6849   -2.2260 C.ar    1  UNL1        0.0000
     32 N          -2.5293    3.4361    0.0938 N.ar    1  UNL1        0.0000
     33 N           0.1866    1.9930    2.4367 N.ar    1  UNL1        0.0000
     34 C          -0.3251   -0.1444    1.1279 C.ar    1  UNL1        0.0000
     35 C           0.2000    1.4321   -0.2421 C.ar    1  UNL1        0.0000
     36 H          -1.7950    0.4892    2.3726 H       1  UNL1        0.0000
     37 H          -1.0433   -4.2720    2.7160 H       1  UNL1        0.0000
     38 H          -0.3372    1.0746    3.3826 H       1  UNL1        0.0000
     39 H           0.0399   -2.9094   -1.9285 H       1  UNL1        0.0000
     40 H          -2.3944   -0.4702    2.8462 H       1  UNL1        0.0000
     41 H           3.5908   -1.5275    2.7001 H       1  UNL1        0.0000
     42 H          -2.8581   -1.0084   -1.6592 H       1  UNL1        0.0000
     43 H          -0.4089    1.5176   -4.4369 H       1  UNL1        0.0000
     44 H           2.4694    1.0931   -1.0188 H       1  UNL1        0.0000
     45 H           1.4069   -1.9681    0.5204 H       1  UNL1        0.0000
     46 H          -0.7342   -0.1899    3.3250 H       1  UNL1        0.0000
     47 H           0.2599   -3.2903   -3.1900 H       1  UNL1        0.0000
     48 H           3.9479   -1.5409   -2.0906 H       1  UNL1        0.0000
     49 H          -0.2383    1.1804    4.9011 H       1  UNL1        0.0000
     50 H          -0.9826   -3.0074    1.3430 H       1  UNL1        0.0000
     51 H          -1.1492   -1.8850   -1.7384 H       1  UNL1        0.0000
     52 H          -0.7110    3.3161   -1.0404 H       1  UNL1        0.0000
     53 H           1.4572   -3.4798   -2.5348 H       1  UNL1        0.0000
     54 H          -1.1606    2.1448   -1.2398 H       1  UNL1        0.0000
     55 H           0.8346   -1.8314   -0.6077 H       1  UNL1        0.0000
     56 H           2.9565    0.4394    0.1104 H       1  UNL1        0.0000
     57 H           1.3519   -2.7000   -3.6280 H       1  UNL1        0.0000
     58 H          -1.3567   -1.8157   -3.8157 H       1  UNL1        0.0000
     59 H           0.8801   -0.4216    2.6526 H       1  UNL1        0.0000
     60 H          -2.8749    2.2199   -0.5473 H       1  UNL1        0.0000
     61 H           1.1760    0.1696   -3.8839 H       1  UNL1        0.0000
     62 H           2.0278    1.8648   -5.0274 H       1  UNL1        0.0000
     63 H           0.9379    3.7542   -0.2053 H       1  UNL1        0.0000
     64 H           2.8570   -0.6056   -0.5779 H       1  UNL1        0.0000
     65 H          -2.2479   -2.9774    1.3343 H       1  UNL1        0.0000
     66 H          -2.3634    1.6673    1.9046 H       1  UNL1        0.0000
     67 H           2.8240    1.9612    1.6062 H       1  UNL1        0.0000
     68 EU          1.6475    1.4943   -0.1879 Eu      1  UNL1        0.0000
@<TRIPOS>BOND
     1     1     2    2
     2     2     3   am
     3     3     4    1
     4     3     5    1
     5     5     6    1
     6     6     7    1
     7     2     8    1
     8     8     9   ar
     9     9    10   ar
    10     8    11   ar
    11    11    12   ar
    12    12    13   ar
    13    10    13   ar
    14    13    14   ar
    15    14    15   ar
    16    15    16   ar
    17    16    17   ar
    18    12    17   ar
    19    17    18   ar
    20    18    19   ar
    21    19    20    1
    22    20    21   ar
    23    21    22   ar
    24    22    23    1
    25    23    24    1
    26    23    25    1
    27    23    26    1
    28    26    27    1
    29    27    28    1
    30    28    29    1
    31    28    30    1
    32    22    31   ar
    33    28    31    1
    34    31    32   ar
    35    32    33   ar
    36    20    33   ar
    37    19    34   ar
    38    34    35   ar
    39    16    35   ar
    40     4    36    1
    41     4    37    1
    42     4    38    1
    43     5    39    1
    44     5    40    1
    45     6    41    1
    46     6    42    1
    47     7    43    1
    48     7    44    1
    49     7    45    1
    50     9    46    1
    51    10    47    1
    52    14    48    1
    53    15    49    1
    54    24    50    1
    55    24    51    1
    56    24    52    1
    57    25    53    1
    58    25    54    1
    59    25    55    1
    60    26    56    1
    61    26    57    1
    62    27    58    1
    63    27    59    1
    64    29    60    1
    65    29    61    1
    66    29    62    1
    67    30    63    1
    68    30    64    1
    69    30    65    1
    70    34    66    1
    71    35    67    1
    72    68     1    1
    73    68    33    1
    74    68    18    1
    75    68    11    1
@<TRIPOS>MOLECULE
*****
 68 75 0 0 0
SMALL
GASTEIGER

@<TRIPOS>ATOM
      1 O          -0.1057   -0.2436   -0.9910 O.2     1  UNL1        0.0000
      2 C          -1.3016    0.6040   -0.6211 C.2     1  UNL1        0.0000
      3 N          -0.8949   -1.5488    3.0219 N.am    1  UNL1        0.0000
      4 C          -2.6587   -1.8076    2.3835 C.3     1  UNL1        0.0000
      5 C           0.3916   -2.2180    3.0922 C.3     1  UNL1        0.0000
      6 C           2.9465   -2.4427    2.3725 C.3     1  UNL1        0.0000
      7 C          -1.6280   -4.1811    0.1552 C.3     1  UNL1        0.0000
      8 C          -0.5131    2.5502    0.5994 C.ar    1  UNL1        0.0000
      9 C           1.2625    0.9297    1.0017 C.ar    1  UNL1        0.0000
     10 C          -0.4866   -0.4077   -4.2830 C.ar    1  UNL1        0.0000
     11 N           0.6203    2.7628   -1.1190 N.ar    1  UNL1        0.0000
     12 C           1.6019    2.3392   -2.2791 C.ar    1  UNL1        0.0000
     13 C          -1.5868    0.2976   -3.7378 C.ar    1  UNL1        0.0000
     14 C          -0.2617   -2.8028   -0.0414 C.ar    1  UNL1        0.0000
     15 C          -0.3568   -2.8161   -0.0465 C.ar    1  UNL1        0.0000
     16 C           0.2515   -1.2486   -2.6092 C.ar    1  UNL1        0.0000
     17 C           2.4878   -1.1371   -1.9106 C.ar    1  UNL1        0.0000
     18 N           1.2815   -0.6508    0.5617 N.ar    1  UNL1        0.0000
     19 C          -0.3813   -0.8868    0.9328 C.ar    1  UNL1        0.0000
     20 C          -1.2547   -0.8424    1.6475 C.ar    1  UNL1        0.0000
     21 N          -2.9618    0.8015   -0.5810 N.ar    1  UNL1        0.0000
     22 C          -1.3182   -0.2196   -2.0784 C.ar    1  UNL1        0.0000
     23 C          -0.7458   -4.3857   -2.0042 C.3     1  UNL1        0.0000
     24 C          -1.4996    1.0596    0.9150 C.3     1  UNL1        0.0000
     25 C           0.4145    1.3041   -2.4622 C.3     1  UNL1        0.0000
     26 C          -1.5747    0.9627    0.9208 C.3     1  UNL1        0.0000
     27 C          -2.7969   -0.3124    0.6005 C.3     1  UNL1        0.0000
     28 C           2.5887    0.4440    1.9470 C.3     1  UNL1        0.0000
     29 C           1.5620    0.9436    2.5737 C.3     1  UNL1        0.0000
     30 C          -3.0263   -2.5739    0.8983 C.3     1  UNL1        0.0000
     31 C          -1.0435    0.6849   -2.2260 C.ar    1  UNL1        0.0000
     32 N          -2.5293    3.4361    0.0938 N.ar    1  UNL1        0.0000
     33 N           0.1866    1.9930    2.4367 N.ar    1  UNL1        0.0000
     34 C          -0.3251   -0.1444    1.1279 C.ar    1  UNL1        0.0000
     35 C           0.2000    1.4321   -0.2421 C.ar    1  UNL1        0.0000
     36 H          -1.7950    0.4892    2.3726 H       1  UNL1        0.0000
     37 H          -1.0433   -4.2720    2.7160 H       1  UNL1        0.0000
     38 H          -0.3372    1.0746    3.3826 H       1  UNL1        0.0000
     39 H           0.0399   -2.9094   -1.9285 H       1  UNL1        0.0000
     40 H          -2.3944   -0.4702    2.8462 H       1  UNL1        0.0000
     41 H           3.5908   -1.5275    2.7001 H       1  UNL1        0.0000
     42 H          -2.8581   -1.0084   -1.6592 H       1  UNL1        0.0000
     43 H          -0.4089    1.5176   -4.4369 H       1  UNL1        0.0000
     44 H           2.4694    1.0931   -1.0188 H       1  UNL1        0.0000
     45 H           1.4069   -1.9681    0.5204 H       1  UNL1        0.0000
     46 H          -0.7342   -0.1899    3.3250 H       1  UNL1        0.0000
     47 H           0.2599   -3.2903   -3.1900 H       1  UNL1        0.0000
     48 H           3.9479   -1.5409   -2.0906 H       1  UNL1        0.0000
     49 H          -0.2383    1.1804    4.9011 H       1  UNL1        0.0000
     50 H          -0.9826   -3.0074    1.3430 H       1  UNL1        0.0000
     51 H          -1.1492   -1.8850   -1.7384 H       1  UNL1        0.0000
     52 H          -0.7110    3.3161   -1.0404 H       1  UNL1        0.0000
     53 H           1.4572   -3.4798   -2.5348 H       1  UNL1        0.0000
     54 H          -1.1606    2.1448   -1.2398 H       1  UNL1        0.0000
     55 H           0.8346   -1.8314   -0.6077 H       1  UNL1        0.0000
     56 H           2.9565    0.4394    0.1104 H       1  UNL1        0.0000
     57 H           1.3519   -2.7000   -3.6280 H       1  UNL1        0.0000
     58 H          -1.3567   -1.8157   -3.8157 H       1  UNL1        0.0000
     59 H           0.8801   -0.4216    2.6526 H       1  UNL1        0.0000
     60 H          -2.8749    2.2199   -0.5473 H       1  UNL1        0.0000
     61 H           1.1760    0.1696   -3.8839 H       1  UNL1        0.0000
     62 H           2.0278    1.8648   -5.0274 H       1  UNL1        0.0000
     63 H           0.9379    3.7542   -0.2053 H       1  UNL1        0.0000
     64 H           2.8570   -0.6056   -0.5779 H       1  UNL1        0.0000
     65 H          -2.2479   -2.9774    1.3343 H       1  UNL1        0.0000
     66 H          -2.3634    1.6673    1.9046 H       1  UNL1        0.0000
     67 H           2.8240    1.9612    1.6062 H       1  UNL1        0.0000
     68 EU          1.6475    1.4943   -0.1879 Eu      1  UNL1        0.0000
@<TRIPOS>BOND
     1     1     2    2
     2     2     3   am
     3     3     4    1
     4     3     5    1
     5     5     6    1
     6     6     7    1
     7     2     8    1
     8     8     9   ar
     9     9    10   ar
    10     8    11   ar
    11    11    12   ar
    12    12    13   ar
    13    10    13   ar
    14    13    14   ar
    15    14    15   ar
    16    15    16   ar
    17    16    17   ar
    18    12    17   ar
    19    17    18   ar
    20    18    19   ar
    21    19    20    1
    22    20    21   ar
    23    21    22   ar
    24    22    23    1
    25    23    24    1
    26    23    25    1
    27    23    26    1
    28    26    27    1
    29    27    28    1
    30    28    29    1
    31    28    30    1
    32    22    31   ar
    33    28    31    1
    34    31    32   ar
    35    32    33   ar
    36    20    33   ar
    37    19    34   ar
    38    34    35   ar
    39    16    35   ar
    40     4    36    1
    41     4    37    1
    42     4    38    1
    43     5    39    1
    44     5    40    1
    45     6    41    1
    46     6    42    1
    47     7    43    1
    48     7    44    1
    49     7    45    1
    50     9    46    1
    51    10    47    1
    52    14    48    1
    53    15    49    1
    54    24    50    1
    55    24    51    1
    56    24    52    1
    57    25    53    1
    58    25    54    1
    59    25    55    1
    60    26    56    1
    61    26    57    1
    62    27    58    1
    63    27    59    1
    64    29    60    1
    65    29    61    1
    66    29    62    1
    67    30    63    1
    68    30    64    1
    69    30    65    1
    70    34    66    1
    71    35    67    1
    72    68     1    1
    73    68    33    1
    74    68    18    1
    75    68    11    1
@<TRIPOS>MOLECULE
*****
 68 75 0 0 0
SMALL
GASTEIGER

@<TRIPOS>ATOM
      1 O          -0.1057   -0.2436   -0.9910 O.2     1  UNL1        0.0000
      2 C          -1.3016    0.6040   -0.6211 C.2     1  UNL1        0.0000
      3 N          -0.8949   -1.5488    3.0219 N.am    1  UNL1        0.0000
      4 C          -2.6587   -1.8076    2.3835 C.3     1  UNL1        0.0000
      5 C           0.3916   -2.2180    3.0922 C.3     1  UNL1        0.0000
      6 C           2.9465   -2.4427    2.3725 C.3     1  UNL1        0.0000
      7 C          -1.6280   -4.1811    0.1552 C.3     1  UNL1        0.0000
      8 C          -0.5131    2.5502    0.5994 C.ar    1  UNL1        0.0000
      9 C           1.2625    0.9297    1.0017 C.ar    1  UNL1        0.0000
     10 C          -0.4866   -0.4077   -4.2830 C.ar    1  UNL1        0.0000
     11 N           0.6203    2.7628   -1.1190 N.ar    1  UNL1        0.0000
     12 C           1.6019    2.3392   -2.2791 C.ar    1  UNL1        0.0000
     13 C          -1.5868    0.2976   -3.7378 C.ar    1  UNL1        0.0000
     14 C          -0.2617   -2.8028   -0.0414 C.ar    1  UNL1        0.0000
     15 C          -0.3568   -2.8161   -0.0465 C.ar    1  UNL1        0.0000
     16 C           0.2515   -1.2486   -2.6092 C.ar    1  UNL1        0.0000
     17 C           2.4878   -1.1371   -1.9106 C.ar    1  UNL1        0.0000
     18 N           1.2815   -0.6508    0.5617 N.ar    1  UNL1        0.0000
     19 C          -0.3813   -0.8868    0.9328 C.ar    1  UNL1        0.0000
     20 C          -1.2547   -0.8424    1.6475 C.ar    1  UNL1        0.0000
     21 N          -2.9618    0.8015   -0.5810 N.ar    1  UNL1        0.0000
     22 C          -1.3182   -0.2196   -2.0784 C.ar    1  UNL1        0.0000
     23 C          -0.7458   -4.3857   -2.0042 C.3     1  UNL1        0.0000
     24 C          -1.4996    1.0596    0.9150 C.3     1  UNL1        0.0000
     25 C           0.4145    1.3041   -2.4622 C.3     1  UNL1        0.0000
     26 C          -1.5747    0.9627    0.9208 C.3     1  UNL1        0.0000
     27 C          -2.7969   -0.3124    0.6005 C.3     1  UNL1        0.0000
     28 C           2.5887    0.4440    1.9470 C.3     1  UNL1        0.0000
     29 C           1.5620    0.9436    2.5737 C.3     1  UNL1        0.0000
     30 C          -3.0263   -2.5739    0.8983 C.3     1  UNL1        0.0000
     31 C          -1.0435    0.6849   -2.2260 C.ar    1  UNL1        0.0000
     32 N          -2.5293    3.4361    0.0938 N.ar    1  UNL1        0.0000
     33 N           0.1866    1.9930    2.4367 N.ar    1  UNL1        0.0000
     34 C          -0.3251   -0.1444    1.1279 C.ar    1  UNL1        0.0000
     35 C           0.2000    1.4321   -0.2421 C.ar    1  UNL1        0.0000
     36 H          -1.7950    0.4892    2.3726 H       1  UNL1        0.0000
     37 H          -1.0433   -4.2720    2.7160 H       1  UNL1        0.0000
     38 H          -0.3372    1.0746    3.3826 H       1  UNL1        0.0000
     39 H           0.0399   -2.9094   -1.9285 H       1  UNL1        0.0000
     40 H          -2.3944   -0.4702    2.8462 H       1  UNL1        0.0000
     41 H           3.5908   -1.5275    2.7001 H       1  UNL1        0.0000
     42 H          -2.8581   -1.0084   -1.6592 H       1  UNL1        0.0000
     43 H          -0.4089    1.5176   -4.4369 H       1  UNL1        0.0000
     44 H           2.4694    1.0931   -1.0188 H       1  UNL1        0.0000
     45 H           1.4069   -1.9681    0.5204 H       1  UNL1        0.0000
     46 H          -0.7342   -0.1899    3.3250 H       1  UNL1        0.0000
     47 H           0.2599   -3.2903   -3.1900 H       1  UNL1        0.0000
     48 H           3.9479   -1.5409   -2.0906 H       1  UNL1        0.0000
     49 H          -0.2383    1.1804    4.9011 H       1  UNL1        0.0000
     50 H          -0.9826   -3.0074    1.3430 H       1  UNL1        0.0000
     51 H          -1.1492   -1.8850   -1.7384 H       1  UNL1        0.0000
     52 H          -0.7110    3.3161   -1.0404 H       1  UNL1        0.0000
     53 H           1.4572   -3.4798   -2.5348 H       1  UNL1        0.0000
     54 H          -1.1606    2.1448   -1.2398 H       1  UNL1        0.0000
     55 H           0.8346   -1.8314   -0.6077 H       1  UNL1        0.0000
     56 H           2.9565    0.4394    0.1104 H       1  UNL1        0.0000
     57 H           1.3519   -2.7000   -3.6280 H       1  UNL1        0.0000
     58 H          -1.3567   -1.8157   -3.8157 H       1  UNL1        0.0000
     59 H           0.8801   -0.4216    2.6526 H       1  UNL1        0.0000
     60 H          -2.8749    2.2199   -0.5473 H       1  UNL1        0.0000
     61 H           1.1760    0.1696   -3.8839 H       1  UNL1        0.0000
     62 H           2.0278    1.8648   -5.0274 H       1  UNL1        0.0000
     63 H           0.9379    3.7542   -0.2053 H       1  UNL1        0.0000
     64 H           2.8570   -0.6056   -0.5779 H       1  UNL1        0.0000
     65 H          -2.2479   -2.9774    1.3343 H       1  UNL1        0.0000
     66 H          -2.3634    1.6673    1.9046 H       1  UNL1        0.0000
     67 H           2.8240    1.9612    1.6062 H       1  UNL1        0.0000
     68 EU          1.6475    1.4943   -0.1879 Eu      1  UNL1        0.0000
@<TRIPOS>BOND
     1     1     2    2
     2     2     3   am
     3     3     4    1
     4     3     5    1
     5     5     6    1
     6     6     7    1
     7     2     8    1
     8     8     9   ar
     9     9    10   ar
    10     8    11   ar
    11    11    12   ar
    12    12    13   ar
    13    10    13   ar
    14    13    14   ar
    15    14    15   ar
    16    15    16   ar
    17    16    17   ar
    18    12    17   ar
    19    17    18   ar
    20    18    19   ar
    21    19    20    1
    22    20    21   ar
    23    21    22   ar
    24    22    23    1
    25    23    24    1
    26    23    25    1
    27    23    26    1
    28    26    27    1
    29    27    28    1
    30    28    29    1
    31    28    30    1
    32    22    31   ar
    33    28    31    1
    34    31    32   ar
    35    32    33   ar
    36    20    33   ar
    37    19    34   ar
    38    34    35   ar
    39    16    35   ar
    40     4    36    1
    41     4    37    1
    42     4    38    1
    43     5    39    1
    44     5    40    1
    45     6    41    1
    46     6    42    1
    47     7    43    1
    48     7    44    1
    49     7    45    1
    50     9    46    1
    51    10    47    1
    52    14    48    1
    53    15    49    1
    54    24    50    1
    55    24    51    1
    56    24    52    1
    57    25    53    1
    58    25    54    1
    59    25    55    1
    60    26    56    1
    61    26    57    1
    62    27    58    1
    63    27    59    1
    64    29    60    1
    65    29    61    1
    66    29    62    1
    67    30    63    1
    68    30    64    1
    69    30    65    1
    70    34    66    1
    71    35    67    1
    72    68     1    1
    73    68    33    1
    74    68    18    1
    75    68    11    1
@<TRIPOS>MOLECULE
*****
 68 75 0 0 0
SMALL
GASTEIGER

@<TRIPOS>ATOM
      1 O          -0.1057   -0.2436   -0.9910 O.2     1  UNL1        0.0000
      2 C          -1.3016    0.6040   -0.6211 C.2     1  UNL1        0.0000
      3 N          -0.8949   -1.5488    3.0219 N.am    1  UNL1        0.0000
      4 C          -2.6587   -1.8076    2.3835 C.3     1  UNL1        0.0000
      5 C           0.3916   -2.2180    3.0922 C.3     1  UNL1        0.0000
      6 C           2.9465   -2.4427    2.3725 C.3     1  UNL1        0.0000
      7 C          -1.6280   -4.1811    0.1552 C.3     1  UNL1        0.0000
      8 C          -0.5131    2.5502    0.5994 C.ar    1  UNL1        0.0000
      9 C           1.2625    0.9297    1.0017 C.ar    1  UNL1        0.0000
     10 C          -0.4866   -0.4077   -4.2830 C.ar    1  UNL1        0.0000
     11 N           0.6203    2.7628   -1.1190 N.ar    1  UNL1        0.0000
     12 C           1.6019    2.3392   -2.2791 C.ar    1  UNL1        0.0000
     13 C          -1.5868    0.2976   -3.7378 C.ar    1  UNL1        0.0000
     14 C          -0.2617   -2.8028   -0.0414 C.ar    1  UNL1        0.0000
     15 C          -0.3568   -2.8161   -0.0465 C.ar    1  UNL1        0.0000
     16 C           0.2515   -1.2486   -2.6092 C.ar    1  UNL1        0.0000
     17 C           2.4878   -1.1371   -1.9106 C.ar    1  UNL1        0.0000
     18 N           1.2815   -0.6508    0.5617 N.ar    1  UNL1        0.0000
     19 C          -0.3813   -0.8868    0.9328 C.ar    1  UNL1        0.0000
     20 C          -1.2547   -0.8424    1.6475 C.ar    1  UNL1        0.0000
     21 N          -2.9618    0.8015   -0.5810 N.ar    1  UNL1        0.0000
     22 C          -1.3182   -0.2196   -2.0784 C.ar    1  UNL1        0.0000
     23 C          -0.7458   -4.3857   -2.0042 C.3     1  UNL1        0.0000
     24 C          -1.4996    1.0596    0.9150 C.3     1  UNL1        0.0000
     25 C           0.4145    1.3041   -2.4622 C.3     1  UNL1        0.0000
     26 C          -1.5747    0.9627    0.9208 C.3     1  UNL1        0.0000
     27 C          -2.7969   -0.3124    0.6005 C.3     1  UNL1        0.0000
     28 C           2.5887    0.4440    1.9470 C.3     1  UNL1        0.0000
     29 C           1.5620    0.9436    2.5737 C.3     1  UNL1        0.0000
     30 C          -3.0263   -2.5739    0.8983 C.3     1  UNL1        0.0000
     31 C          -1.0435    0.6849   -2.2260 C.ar    1  UNL1        0.0000
     32 N          -2.5293    3.4361    0.0938 N.ar    1  UNL1        0.0000
     33 N           0.1866    1.9930    2.4367 N.ar    1  UNL1        0.0000
     34 C          -0.3251   -0.1444    1.1279 C.ar    1  UNL1        0.0000
     35 C           0.2000    1.4321   -0.2421 C.ar    1  UNL1        0.0000
     36 H          -1.7950    0.4892    2.3726 H       1  UNL1        0.0000
     37 H          -1.0433   -4.2720    2.7160 H       1  UNL1        0.0000
     38 H          -0.3372    1.0746    3.3826 H       1  UNL1        0.0000
     39 H           0.0399   -2.9094   -1.9285 H       1  UNL1        0.0000
     40 H          -2.3944   -0.4702    2.8462 H       1  UNL1        0.0000
     41 H           3.5908   -1.5275    2.7001 H       1  UNL1        0.0000
     42 H          -2.8581   -1.0084   -1.6592 H       1  UNL1        0.0000
     43 H          -0.4089    1.5176   -4.4369 H       1  UNL1        0.0000
     44 H           2.4694    1.0931   -1.0188 H       1  UNL1        0.0000
     45 H           1.4069   -1.9681    0.5204 H       1  UNL1        0.0000
     46 H          -0.7342   -0.1899    3.3250 H       1  UNL1        0.0000
     47 H           0.2599   -3.2903   -3.1900 H       1  UNL1        0.0000
     48 H           3.9479   -1.5409   -2.0906 H       1  UNL1        0.0000
     49 H          -0.2383    1.1804    4.9011 H       1  UNL1        0.0000
     50 H          -0.9826   -3.0074    1.3430 H       1  UNL1        0.0000
     51 H          -1.1492   -1.8850   -1.7384 H       1  UNL1        0.0000
     52 H          -0.7110    3.3161   -1.0404 H       1  UNL1        0.0000
     53 H           1.4572   -3.4798   -2.5348 H       1  UNL1        0.0000
     54 H          -1.1606    2.1448   -1.2398 H       1  UNL1        0.0000
     55 H           0.8346   -1.8314   -0.6077 H       1  UNL1        0.0000
     56 H           2.9565    0.4394    0.1104 H       1  UNL1        0.0000
     57 H           1.3519   -2.7000   -3.6280 H       1  UNL1        0.0000
     58 H          -1.3567   -1.8157   -3.8157 H       1  UNL1        0.0000
     59 H           0.8801   -0.4216    2.6526 H       1  UNL1        0.0000
     60 H          -2.8749    2.2199   -0.5473 H       1  UNL1        0.0000
     61 H           1.1760    0.1696   -3.8839 H       1  UNL1        0.0000
     62 H           2.0278    1.8648   -5.0274 H       1  UNL1        0.0000
     63 H           0.9379    3.7542   -0.2053 H       1  UNL1        0.0000
     64 H           2.8570   -0.6056   -0.5779 H       1  UNL1        0.0000
     65 H          -2.2479   -2.9774    1.3343 H       1  UNL1        0.0000
     66 H          -2.3634    1.6673    1.9046 H       1  UNL1        0.0000
     67 H           2.8240    1.9612    1.6062 H       1  UNL1        0.0000
     68 EU          1.6475    1.4943   -0.1879 Eu      1  UNL1        0.0000
@<TRIPOS>BOND
     1     1     2    2
     2     2     3   am
     3     3     4    1
     4     3     5    1
     5     5     6    1
     6     6     7    1
     7     2     8    1
     8     8     9   ar
     9     9    10   ar
    10     8    11   ar
    11    11    12   ar
    12    12    13   ar
    13    10    13   ar
    14    13    14   ar
    15    14    15   ar
    16    15    16   ar
    17    16    17   ar
    18    12    17   ar
    19    17    18   ar
    20    18    19   ar
    21    19    20    1
    22    20    21   ar
    23    21    22   ar
    24    22    23    1
    25    23    24    1
    26    23    25    1
    27    23    26    1
    28    26    27    1
    29    27    28    1
    30    28    29    1
    31    28    30    1
    32    22    31   ar
    33    28    31    1
    34    31    32   ar
    35    32    33   ar
    36    20    33   ar
    37    19    34   ar
    38    34    35   ar
    39    16    35   ar
    40     4    36    1
    41     4    37    1
    42     4    38    1
    43     5    39    1
    44     5    40    1
    45     6    41    1
    46     6    42    1
    47     7    43    1
    48     7    44    1
    49     7    45    1
    50     9    46    1
    51    10    47    1
    52    14    48    1
    53    15    49    1
    54    24    50    1
    55    24    51    1
    56    24    52    1
    57    25    53    1
    58    25    54    1
    59    25    55    1
    60    26    56    1
    61    26    57    1
    62    27    58    1
    63    27    59    1
    64    29    60    1
    65    29    61    1
    66    29    62    1
    67    30    63    1
    68    30    64    1
    69    30    65    1
    70    34    66    1
    71    35    67    1
    72    68     1    1
    73    68    33    1
    74    68    18    1
    75    68    11    1
@<TRIPOS>MOLECULE
*****
 68 75 0 0 0
SMALL
GASTEIGER

@<TRIPOS>ATOM
      1 O          -0.1057   -0.2436   -0.9910 O.2     1  UNL1        0.0000
      2 C          -1.3016    0.6040   -0.6211 C.2     1  UNL1        0.0000
      3 N          -0.8949   -1.5488    3.0219 N.am    1  UNL1        0.0000
      4 C          -2.6587   -1.8076    2.3835 C.3     1  UNL1        0.0000
      5 C           0.3916   -2.2180    3.0922 C.3     1  UNL1        0.0000
      6 C           2.9465   -2.4427    2.3725 C.3     1  UNL1        0.0000
      7 C          -1.6280   -4.1811    0.1552 C.3     1  UNL1        0.0000
      8 C          -0.5131    2.5502    0.5994 C.ar    1  UNL1        0.0000
      9 C           1.2625    0.9297    1.0017 C.ar    1  UNL1        0.0000
     10 C          -0.4866   -0.4077   -4.2830 C.ar    1  UNL1        0.0000
     11 N           0.6203    2.7628   -1.1190 N.ar    1  UNL1        0.0000
     12 C           1.6019    2.3392   -2.2791 C.ar    1  UNL1        0.0000
     13 C          -1.5868    0.2976   -3.7378 C.ar    1  UNL1        0.0000
     14 C          -0.2617   -2.8028   -0.0414 C.ar    1  UNL1        0.0000
     15 C          -0.3568   -2.8161   -0.0465 C.ar    1  UNL1        0.0000
     16 C           0.2515   -1.2486   -2.6092 C.ar    1  UNL1        0.0000
     17 C           2.4878   -1.1371   -1.9106 C.ar    1  UNL1        0.0000
     18 N           1.2815   -0.6508    0.5617 N.ar    1  UNL1        0.0000
     19 C          -0.3813   -0.8868    0.9328 C.ar    1  UNL1        0.0000
     20 C          -1.2547   -0.8424    1.6475 C.ar    1  UNL1        0.0000
     21 N          -2.9618    0.8015   -0.5810 N.ar    1  UNL1        0.0000
     22 C          -1.3182   -0.2196   -2.0784 C.ar    1  UNL1        0.0000
     23 C          -0.7458   -4.3857   -2.0042 C.3     1  UNL1        0.0000
     24 C          -1.4996    1.0596    0.9150 C.3     1  UNL1        0.0000
     25 C           0.4145    1.3041   -2.4622 C.3     1  UNL1        0.0000
     26 C          -1.5747    0.9627    0.9208 C.3     1  UNL1        0.0000
     27 C          -2.7969   -0.3124    0.6005 C.3     1  UNL1        0.0000
     28 C           2.5887    0.4440    1.9470 C.3     1  UNL1        0.0000
     29 C           1.5620    0.9436    2.5737 C.3     1  UNL1        0.0000
     30 C          -3.0263   -2.5739    0.8983 C.3     1  UNL1        0.0000
     31 C          -1.0435    0.6849   -2.2260 C.ar    1  UNL1        0.0000
     32 N          -2.5293    3.4361    0.0938 N.ar    1  UNL1        0.0000
     33 N           0.1866    1.9930    2.4367 N.ar    1  UNL1        0.0000
     34 C          -0.3251   -0.1444    1.1279 C.ar    1  UNL1        0.0000
     35 C           0.2000    1.4321   -0.2421 C.ar    1  UNL1        0.0000
     36 H          -1.7950    0.4892    2.3726 H       1  UNL1        0.0000
     37 H          -1.0433   -4.2720    2.7160 H       1  UNL1        0.0000
     38 H          -0.3372    1.0746    3.3826 H       1  UNL1        0.0000
     39 H           0.0399   -2.9094   -1.9285 H       1  UNL1        0.0000
     40 H          -2.3944   -0.4702    2.8462 H       1  UNL1        0.0000
     41 H           3.5908   -1.5275    2.7001 H       1  UNL1        0.0000
     42 H          -2.8581   -1.0084   -1.6592 H       1  UNL1        0.0000
     43 H          -0.4089    1.5176   -4.4369 H       1  UNL1        0.0000
     44 H           2.4694    1.0931   -1.0188 H       1  UNL1        0.0000
     45 H           1.4069   -1.9681    0.5204 H       1  UNL1        0.0000
     46 H          -0.7342   -0.1899    3.3250 H       1  UNL1        0.0000
     47 H           0.2599   -3.2903   -3.1900 H       1  UNL1        0.0000
     48 H           3.9479   -1.5409   -2.0906 H       1  UNL1        0.0000
     49 H          -0.2383    1.1804    4.9011 H       1  UNL1        0.0000
     50 H          -0.9826   -3.0074    1.3430 H       1  UNL1        0.0000
     51 H          -1.1492   -1.8850   -1.7384 H       1  UNL1        0.0000
     52 H          -0.7110    3.3161   -1.0404 H       1  UNL1        0.0000
     53 H           1.4572   -3.4798   -2.5348 H       1  UNL1        0.0000
     54 H          -1.1606    2.1448   -1.2398 H       1  UNL1        0.0000
     55 H           0.8346   -1.8314   -0.6077 H       1  UNL1        0.0000
     56 H           2.9565    0.4394    0.1104 H       1  UNL1        0.0000
     57 H           1.3519   -2.7000   -3.6280 H       1  UNL1        0.0000
     58 H          -1.3567   -1.8157   -3.8157 H       1  UNL1        0.0000
     59 H           0.8801   -0.4216    2.6526 H       1  UNL1        0.0000
     60 H          -2.8749    2.2199   -0.5473 H       1  UNL1        0.0000
     61 H           1.1760    0.1696   -3.8839 H       1  UNL1        0.0000
     62 H           2.0278    1.8648   -5.0274 H       1  UNL1        0.0000
     63 H           0.9379    3.7542   -0.2053 H       1  UNL1        0.0000
     64 H           2.8570   -0.6056   -0.5779 H       1  UNL1        0.0000
     65 H          -2.2479   -2.9774    1.3343 H       1  UNL1        0.0000
     66 H          -2.3634    1.6673    1.9046 H       1  UNL1        0.0000
     67 H           2.8240    1.9612    1.6062 H       1  UNL1        0.0000
     68 EU          1.6475    1.4943   -0.1879 Eu      1  UNL1        0.0000
@<TRIPOS>BOND
     1     1     2    2
     2     2     3   am
     3     3     4    1
     4     3     5    1
     5     5     6    1
     6     6     7    1
     7     2     8    1
     8     8     9   ar
     9     9    10   ar
    10     8    11   ar
    11    11    12   ar
    12    12    13   ar
    13    10    13   ar
    14    13    14   ar
    15    14    15   ar
    16    15    16   ar
    17    16    17   ar
    18    12    17   ar
    19    17    18   ar
    20    18    19   ar
    21    19    20    1
    22    20    21   ar
    23    21    22   ar
    24    22    23    1
    25    23    24    1
    26    23    25    1
    27    23    26    1
    28    26    27    1
    29    27    28    1
    30    28    29    1
    31    28    30    1
    32    22    31   ar
    33    28    31    1
    34    31    32   ar
    35    32    33   ar
    36    20    33   ar
    37    19    34   ar
    38    34    35   ar
    39    16    35   ar
    40     4    36    1
    41     4    37    1
    42     4    38    1
    43     5    39    1
    44     5    40    1
    45     6    41    1
    46     6    42    1
    47     7    43    1
    48     7    44    1
    49     7    45    1
    50     9    46    1
    51    10    47    1
    52    14    48    1
    53    15    49    1
    54    24    50    1
    55    24    51    1
    56    24    52    1
    57    25    53    1
    58    25    54    1
    59    25    55    1
    60    26    56    1
    61    26    57    1
    62    27    58    1
    63    27    59    1
    64    29    60    1
    65    29    61    1
    66    29    62    1
    67    30    63    1
    68    30    64    1
    69    30    65    1
    70    34    66    1
    71    35    67    1
    72    68     1    1
    73    68    33    1
    74    68    18    1
    75    68    11    1
@<TRIPOS>MOLECULE
*****
 68 75 0 0 0
SMALL
GASTEIGER

@<TRIPOS>ATOM
      1 O          -0.1057   -0.2436   -0.9910 O.2     1  UNL1        0.0000
      2 C          -1.3016    0.6040   -0.6211 C.2     1  UNL1        0.0000
      3 N          -0.8949   -1.5488    3.0219 N.am    1  UNL1        0.0000
      4 C          -2.6587   -1.8076    2.3835 C.3     1  UNL1        0.0000
      5 C           0.3916   -2.2180    3.0922 C.3     1  UNL1        0.0000
      6 C           2.9465   -2.4427    2.3725 C.3     1  UNL1        0.0000
      7 C          -1.6280   -4.1811    0.1552 C.3     1  UNL1        0.0000
      8 C          -0.5131    2.5502    0.5994 C.ar    1  UNL1        0.0000
      9 C           1.2625    0.9297    1.0017 C.ar    1  UNL1        0.0000
     10 C          -0.4866   -0.4077   -4.2830 C.ar    1  UNL1        0.0000
     11 N           0.6203    2.7628   -1.1190 N.ar    1  UNL1        0.0000
     12 C           1.6019    2.3392   -2.2791 C.ar    1  UNL1        0.0000
     13 C          -1.5868    0.2976   -3.7378 C.ar    1  UNL1        0.0000
     14 C          -0.2617   -2.8028   -0.0414 C.ar    1  UNL1        0.0000
     15 C          -0.3568   -2.8161   -0.0465 C.ar    1  UNL1        0.0000
     16 C           0.2515   -1.2486   -2.6092 C.ar    1  UNL1        0.0000
     17 C           2.4878   -1.1371   -1.9106 C.ar    1  UNL1        0.0000
     18 N           1.2815   -0.6508    0.5617 N.ar    1  UNL1        0.0000
     19 C          -0.3813   -0.8868    0.9328 C.ar    1  UNL1        0.0000
     20 C          -1.2547   -0.8424    1.6475 C.ar    1  UNL1        0.0000
     21 N          -2.9618    0.8015   -0.5810 N.ar    1  UNL1        0.0000
     22 C          -1.3182   -0.2196   -2.0784 C.ar    1  UNL1        0.0000
     23 C          -0.7458   -4.3857   -2.0042 C.3     1  UNL1        0.0000
     24 C          -1.4996    1.0596    0.9150 C.3     1  UNL1        0.0000
     25 C           0.4145    1.3041   -2.4622 C.3     1  UNL1        0.0000
     26 C          -1.5747    0.9627    0.9208 C.3     1  UNL1        0.0000
     27 C          -2.7969   -0.3124    0.6005 C.3     1  UNL1        0.0000
     28 C           2.5887    0.4440    1.9470 C.3     1  UNL1        0.0000
     29 C           1.5620    0.9436    2.5737 C.3     1  UNL1        0.0000
     30 C          -3.0263   -2.5739    0.8983 C.3     1  UNL1        0.0000
     31 C          -1.0435    0.6849   -2.2260 C.ar    1  UNL1        0.0000
     32 N          -2.5293    3.4361    0.0938 N.ar    1  UNL1        0.0000
     33 N           0.1866    1.9930    2.4367 N.ar    1  UNL1        0.0000
     34 C          -0.3251   -0.1444    1.1279 C.ar    1  UNL1        0.0000
     35 C           0.2000    1.4321   -0.2421 C.ar    1  UNL1        0.0000
     36 H          -1.7950    0.4892    2.3726 H       1  UNL1        0.0000
     37 H          -1.0433   -4.2720    2.7160 H       1  UNL1        0.0000
     38 H          -0.3372    1.0746    3.3826 H       1  UNL1        0.0000
     39 H           0.0399   -2.9094   -1.9285 H       1  UNL1        0.0000
     40 H          -2.3944   -0.4702    2.8462 H       1  UNL1        0.0000
     41 H           3.5908   -1.5275    2.7001 H       1  UNL1        0.0000
     42 H          -2.8581   -1.0084   -1.6592 H       1  UNL1        0.0000
     43 H          -0.4089    1.5176   -4.4369 H       1  UNL1        0.0000
     44 H           2.4694    1.0931   -1.0188 H       1  UNL1        0.0000
     45 H           1.4069   -1.9681    0.5204 H       1  UNL1        0.0000
     46 H          -0.7342   -0.1899    3.3250 H       1  UNL1        0.0000
     47 H           0.2599   -3.2903   -3.1900 H       1  UNL1        0.0000
     48 H           3.9479   -1.5409   -2.0906 H       1  UNL1        0.0000
     49 H          -0.2383    1.1804    4.9011 H       1  UNL1        0.0000
     50 H          -0.9826   -3.0074    1.3430 H       1  UNL1        0.0000
     51 H          -1.1492   -1.8850   -1.7384 H       1  UNL1        0.0000
     52 H          -0.7110    3.3161   -1.0404 H       1  UNL1        0.0000
     53 H           1.4572   -3.4798   -2.5348 H       1  UNL1        0.0000
     54 H          -1.1606    2.1448   -1.2398 H       1  UNL1        0.0000
     55 H           0.8346   -1.8314   -0.6077 H       1  UNL1        0.0000
     56 H           2.9565    0.4394    0.1104 H       1  UNL1        0.0000
     57 H           1.3519   -2.7000   -3.6280 H       1  UNL1        0.0000
     58 H          -1.3567   -1.8157   -3.8157 H       1  UNL1        0.0000
     59 H           0.8801   -0.4216    2.6526 H       1  UNL1        0.0000
     60 H          -2.8749    2.2199   -0.5473 H       1  UNL1        0.0000
     61 H           1.1760    0.1696   -3.8839 H       1  UNL1        0.0000
     62 H           2.0278    1.8648   -5.0274 H       1  UNL1        0.0000
     63 H           0.9379    3.7542   -0.2053 H       1  UNL1        0.0000
     64 H           2.8570   -0.6056   -0.5779 H       1  UNL1        0.0000
     65 H          -2.2479   -2.9774    1.3343 H       1  UNL1        0.0000
     66 H          -2.3634    1.6673    1.9046 H       1  UNL1        0.0000
     67 H           2.8240    1.9612    1.6062 H       1  UNL1        0.0000
     68 EU          1.6475    1.4943   -0.1879 Eu      1  UNL1        0.0000
@<TRIPOS>BOND
     1     1     2    2
     2     2     3   am
     3     3     4    1
     4     3     5    1
     5     5     6    1
     6     6     7    1
     7     2     8    1
     8     8     9   ar
     9     9    10   ar
    10     8    11   ar
    11    11    12   ar
    12    12    13   ar
    13    10    13   ar
    14    13    14   ar
    15    14    15   ar
    16    15    16   ar
    17    16    17   ar
    18    12    17   ar
    19    17    18   ar
    20    18    19   ar
    21    19    20    1
    22    20    21   ar
    23    21    22   ar
    24    22    23    1
    25    23    24    1
    26    23    25    1
    27    23    26    1
    28    26    27    1
    29    27    28    1
    30    28    29    1
    31    28    30    1
    32    22    31   ar
    33    28    31    1
    34    31    32   ar
    35    32    33   ar
    36    20    33   ar
    37    19    34   ar
    38    34    35   ar
    39    16    35   ar
    40     4    36    1
    41     4    37    1
    42     4    38    1
    43     5    39    1
    44     5    40    1
    45     6    41    1
    46     6    42    1
    47     7    43    1
    48     7    44    1
    49     7    45    1
    50     9    46    1
    51    10    47    1
    52    14    48    1
    53    15    49    1
    54    24    50    1
    55    24    51    1
    56    24    52    1
    57    25    53    1
    58    25    54    1
    59    25    55    1
    60    26    56    1
    61    26    57    1
    62    27    58    1
    63    27    59    1
    64    29    60    1
    65    29    61    1
    66    29    62    1
    67    30    63    1
    68    30    64    1
    69    30    65    1
    70    34    66    1
    71    35    67    1
    72    68     1    1
    73    68    33    1
    74    68    18    1
    75    68    11    1
@<TRIPOS>MOLECULE
*****
 68 75 0 0 0
SMALL
GASTEIGER

@<TRIPOS>ATOM
      1 O          -0.1057   -0.2436   -0.9910 O.2     1  UNL1        0.0000
      2 C          -1.3016    0.6040   -0.6211 C.2     1  UNL1        0.0000
      3 N          -0.8949   -1.5488    3.0219 N.am    1  UNL1        0.0000
      4 C          -2.6587   -1.8076    2.3835 C.3     1  UNL1        0.0000
      5 C           0.3916   -2.2180    3.0922 C.3     1  UNL1        0.0000
      6 C           2.9465   -2.4427    2.3725 C.3     1  UNL1        0.0000
      7 C          -1.6280   -4.1811    0.1552 C.3     1  UNL1        0.0000
      8 C          -0.5131    2.5502    0.5994 C.ar    1  UNL1        0.0000
      9 C           1.2625    0.9297    1.0017 C.ar    1  UNL1        0.0000
     10 C          -0.4866   -0.4077   -4.2830 C.ar    1  UNL1        0.0000
     11 N           0.6203    2.7628   -1.1190 N.ar    1  UNL1        0.0000
     12 C           1.6019    2.3392   -2.2791 C.ar    1  UNL1        0.0000
     13 C          -1.5868    0.2976   -3.7378 C.ar    1  UNL1        0.0000
     14 C          -0.2617   -2.8028   -0.0414 C.ar    1  UNL1        0.0000
     15 C          -0.3568   -2.8161   -0.0465 C.ar    1  UNL1        0.0000
     16 C           0.2515   -1.2486   -2.6092 C.ar    1  UNL1        0.0000
     17 C           2.4878   -1.1371   -1.9106 C.ar    1  UNL1        0.0000
     18 N           1.2815   -0.6508    0.5617 N.ar    1  UNL1        0.0000
     19 C          -0.3813   -0.8868    0.9328 C.ar    1  UNL1        0.0000
     20 C          -1.2547   -0.8424    1.6475 C.ar    1  UNL1        0.0000
     21 N          -2.9618    0.8015   -0.5810 N.ar    1  UNL1        0.0000
     22 C          -1.3182   -0.2196   -2.0784 C.ar    1  UNL1        0.0000
     23 C          -0.7458   -4.3857   -2.0042 C.3     1  UNL1        0.0000
     24 C          -1.4996    1.0596    0.9150 C.3     1  UNL1        0.0000
     25 C           0.4145    1.3041   -2.4622 C.3     1  UNL1        0.0000
     26 C          -1.5747    0.9627    0.9208 C.3     1  UNL1        0.0000
     27 C          -2.7969   -0.3124    0.6005 C.3     1  UNL1        0.0000
     28 C           2.5887    0.4440    1.9470 C.3     1  UNL1        0.0000
     29 C           1.5620    0.9436    2.5737 C.3     1  UNL1        0.0000
     30 C          -3.0263   -2.5739    0.8983 C.3     1  UNL1        0.0000
     31 C          -1.0435    0.6849   -2.2260 C.ar    1  UNL1        0.0000
     32 N          -2.5293    3.4361    0.0938 N.ar    1  UNL1        0.0000
     33 N           0.1866    1.9930    2.4367 N.ar    1  UNL1        0.0000
     34 C          -0.3251   -0.1444    1.1279 C.ar    1  UNL1        0.0000
     35 C           0.2000    1.4321   -0.2421 C.ar    1  UNL1        0.0000
     36 H          -1.7950    0.4892    2.3726 H       1  UNL1        0.0000
     37 H          -1.0433   -4.2720    2.7160 H       1  UNL1        0.0000
     38 H          -0.3372    1.0746    3.3826 H       1  UNL1        0.0000
     39 H           0.0399   -2.9094   -1.9285 H       1  UNL1        0.0000
     40 H          -2.3944   -0.4702    2.8462 H       1  UNL1        0.0000
     41 H           3.5908   -1.5275    2.7001 H       1  UNL1        0.0000
     42 H          -2.8581   -1.0084   -1.6592 H       1  UNL1        0.0000
     43 H          -0.4089    1.5176   -4.4369 H       1  UNL1        0.0000
     44 H           2.4694    1.0931   -1.0188 H       1  UNL1        0.0000
     45 H           1.4069   -1.9681    0.5204 H       1  UNL1        0.0000
     46 H          -0.7342   -0.1899    3.3250 H       1  UNL1        0.0000
     47 H           0.2599   -3.2903   -3.1900 H       1  UNL1        0.0000
     48 H           3.9479   -1.5409   -2.0906 H       1  UNL1        0.0000
     49 H          -0.2383    1.1804    4.9011 H       1  UNL1        0.0000
     50 H          -0.9826   -3.0074    1.3430 H       1  UNL1        0.0000
     51 H          -1.1492   -1.8850   -1.7384 H       1  UNL1        0.0000
     52 H          -0.7110    3.3161   -1.0404 H       1  UNL1        0.0000
     53 H           1.4572   -3.4798   -2.5348 H       1  UNL1        0.0000
     54 H          -1.1606    2.1448   -1.2398 H       1  UNL1        0.0000
     55 H           0.8346   -1.8314   -0.6077 H       1  UNL1        0.0000
     56 H           2.9565    0.4394    0.1104 H       1  UNL1        0.0000
     57 H           1.3519   -2.7000   -3.6280 H       1  UNL1        0.0000
     58 H          -1.3567   -1.8157   -3.8157 H       1  UNL1        0.0000
     59 H           0.8801   -0.4216    2.6526 H       1  UNL1        0.0000
     60 H          -2.8749    2.2199   -0.5473 H       1  UNL1        0.0000
     61 H           1.1760    0.1696   -3.8839 H       1  UNL1        0.0000
     62 H           2.0278    1.8648   -5.0274 H       1  UNL1        0.0000
     63 H           0.9379    3.7542   -0.2053 H       1  UNL1        0.0000
     64 H           2.8570   -0.6056   -0.5779 H       1  UNL1        0.0000
     65 H          -2.2479   -2.9774    1.3343 H       1  UNL1        0.0000
     66 H          -2.3634    1.6673    1.9046 H       1  UNL1        0.0000
     67 H           2.8240    1.9612    1.6062 H       1  UNL1        0.0000
     68 EU          1.6475    1.4943   -0.1879 Eu      1  UNL1        0.0000
@<TRIPOS>BOND
     1     1     2    2
     2     2     3   am
     3     3     4    1
     4     3     5    1
     5     5     6    1
     6     6     7    1
     7     2     8    1
     8     8     9   ar
     9     9    10   ar
    10     8    11   ar
    11    11    12   ar
    12    12    13   ar
    13    10    13   ar
    14    13    14   ar
    15    14    15   ar
    16    15    16   ar
    17    16    17   ar
    18    12    17   ar
    19    17    18   ar
    20    18    19   ar
    21    19    20    1
    22    20    21   ar
    23    21    22   ar
    24    22    23    1
    25    23    24    1
    26    23    25    1
    27    23    26    1
    28    26    27    1
    29    27    28    1
    30    28    29    1
    31    28    30    1
    32    22    31   ar
    33    28    31    1
    34    31    32   ar
    35    32    33   ar
    36    20    33   ar
    37    19    34   ar
    38    34    35   ar
    39    16    35   ar
    40     4    36    1
    41     4    37    1
    42     4    38    1
    43     5    39    1
    44     5    40    1
    45     6    41    1
    46     6    42    1
    47     7    43    1
    48     7    44    1
    49     7    45    1
    50     9    46    1
    51    10    47    1
    52    14    48    1
    53    15    49    1
    54    24    50    1
    55    24    51    1
    56    24    52    1
    57    25    53    1
    58    25    54    1
    59    25    55    1
    60    26    56    1
    61    26    57    1
    62    27    58    1
    63    27    59    1
    64    29    60    1
    65    29    61    1
    66    29    62    1
    67    30    63    1
    68    30    64    1
    69    30    65    1
    70    34    66    1
    71    35    67    1
    72    68     1    1
    73    68    33    1
    74    68    18    1
    75    68    11    1
@<TRIPOS>MOLECULE
*****
 68 75 0 0 0
SMALL
GASTEIGER

@<TRIPOS>ATOM
      1 O          -0.1057   -0.2436   -0.9910 O.2     1  UNL1        0.0000
      2 C          -1.3016    0.6040   -0.6211 C.2     1  UNL1        0.0000
      3 N          -0.8949   -1.5488    3.0219 N.am    1  UNL1        0.0000
      4 C          -2.6587   -1.8076    2.3835 C.3     1  UNL1        0.0000
      5 C           0.3916   -2.2180    3.0922 C.3     1  UNL1        0.0000
      6 C           2.9465   -2.4427    2.3725 C.3     1  UNL1        0.0000
      7 C          -1.6280   -4.1811    0.1552 C.3     1  UNL1        0.0000
      8 C          -0.5131    2.5502    0.5994 C.ar    1  UNL1        0.0000
      9 C           1.2625    0.9297    1.0017 C.ar    1  UNL1        0.0000
     10 C          -0.4866   -0.4077   -4.2830 C.ar    1  UNL1        0.0000
     11 N           0.6203    2.7628   -1.1190 N.ar    1  UNL1        0.0000
     12 C           1.6019    2.3392   -2.2791 C.ar    1  UNL1        0.0000
     13 C          -1.5868    0.2976   -3.7378 C.ar    1  UNL1        0.0000
     14 C          -0.2617   -2.8028   -0.0414 C.ar    1  UNL1        0.0000
     15 C          -0.3568   -2.8161   -0.0465 C.ar    1  UNL1        0.0000
     16 C           0.2515   -1.2486   -2.6092 C.ar    1  UNL1        0.0000
     17 C           2.4878   -1.1371   -1.9106 C.ar    1  UNL1        0.0000
     18 N           1.2815   -0.6508    0.5617 N.ar    1  UNL1        0.0000
     19 C          -0.3813   -0.8868    0.9328 C.ar    1  UNL1        0.0000
     20 C          -1.2547   -0.8424    1.6475 C.ar    1  UNL1        0.0000
     21 N          -2.9618    0.8015   -0.5810 N.ar    1  UNL1        0.0000
     22 C          -1.3182   -0.2196   -2.0784 C.ar    1  UNL1        0.0000
     23 C          -0.7458   -4.3857   -2.0042 C.3     1  UNL1        0.0000
     24 C          -1.4996    1.0596    0.9150 C.3     1  UNL1        0.0000
     25 C           0.4145    1.3041   -2.4622 C.3     1  UNL1        0.0000
     26 C          -1.5747    0.9627    0.9208 C.3     1  UNL1        0.0000
     27 C          -2.7969   -0.3124    0.6005 C.3     1  UNL1        0.0000
     28 C           2.5887    0.4440    1.9470 C.3     1  UNL1        0.0000
     29 C           1.5620    0.9436    2.5737 C.3     1  UNL1        0.0000
     30 C          -3.0263   -2.5739    0.8983 C.3     1  UNL1        0.0000
     31 C          -1.0435    0.6849   -2.2260 C.ar    1  UNL1        0.0000
     32 N          -2.5293    3.4361    0.0938 N.ar    1  UNL1        0.0000
     33 N           0.1866    1.9930    2.4367 N.ar    1  UNL1        0.0000
     34 C          -0.3251   -0.1444    1.1279 C.ar    1  UNL1        0.0000
     35 C           0.2000    1.4321   -0.2421 C.ar    1  UNL1        0.0000
     36 H          -1.7950    0.4892    2.3726 H       1  UNL1        0.0000
     37 H          -1.0433   -4.2720    2.7160 H       1  UNL1        0.0000
     38 H          -0.3372    1.0746    3.3826 H       1  UNL1        0.0000
     39 H           0.0399   -2.9094   -1.9285 H       1  UNL1        0.0000
     40 H          -2.3944   -0.4702    2.8462 H       1  UNL1        0.0000
     41 H           3.5908   -1.5275    2.7001 H       1  UNL1        0.0000
     42 H          -2.8581   -1.0084   -1.6592 H       1  UNL1        0.0000
     43 H          -0.4089    1.5176   -4.4369 H       1  UNL1        0.0000
     44 H           2.4694    1.0931   -1.0188 H       1  UNL1        0.0000
     45 H           1.4069   -1.9681    0.5204 H       1  UNL1        0.0000
     46 H          -0.7342   -0.1899    3.3250 H       1  UNL1        0.0000
     47 H           0.2599   -3.2903   -3.1900 H       1  UNL1        0.0000
     48 H           3.9479   -1.5409   -2.0906 H       1  UNL1        0.0000
     49 H          -0.2383    1.1804    4.9011 H       1  UNL1        0.0000
     50 H          -0.9826   -3.0074    1.3430 H       1  UNL1        0.0000
     51 H          -1.1492   -1.8850   -1.7384 H       1  UNL1        0.0000
     52 H          -0.7110    3.3161   -1.0404 H       1  UNL1        0.0000
     53 H           1.4572   -3.4798   -2.5348 H       1  UNL1        0.0000
     54 H          -1.1606    2.1448   -1.2398 H       1  UNL1        0.0000
     55 H           0.8346   -1.8314   -0.6077 H       1  UNL1        0.0000
     56 H           2.9565    0.4394    0.1104 H       1  UNL1        0.0000
     57 H           1.3519   -2.7000   -3.6280 H       1  UNL1        0.0000
     58 H          -1.3567   -1.8157   -3.8157 H       1  UNL1        0.0000
     59 H           0.8801   -0.4216    2.6526 H       1  UNL1        0.0000
     60 H          -2.8749    2.2199   -0.5473 H       1  UNL1        0.0000
     61 H           1.1760    0.1696   -3.8839 H       1  UNL1        0.0000
     62 H           2.0278    1.8648   -5.0274 H       1  UNL1        0.0000
     63 H           0.9379    3.7542   -0.2053 H       1  UNL1        0.0000
     64 H           2.8570   -0.6056   -0.5779 H       1  UNL1        0.0000
     65 H          -2.2479   -2.9774    1.3343 H       1  UNL1        0.0000
     66 H          -2.3634    1.6673    1.9046 H       1  UNL1        0.0000
     67 H           2.8240    1.9612    1.6062 H       1  UNL1        0.0000
     68 EU          1.6475    1.4943   -0.1879 Eu      1  UNL1        0.0000
@<TRIPOS>BOND
     1     1     2    2
     2     2     3   am
     3     3     4    1
     4     3     5    1
     5     5     6    1
     6     6     7    1
     7     2     8    1
     8     8     9   ar
     9     9    10   ar
    10     8    11   ar
    11    11    12   ar
    12    12    13   ar
    13    10    13   ar
    14    13    14   ar
    15    14    15   ar
    16    15    16   ar
    17    16    17   ar
    18    12    17   ar
    19    17    18   ar
    20    18    19   ar
    21    19    20    1
    22    20    21   ar
    23    21    22   ar
    24    22    23    1
    25    23    24    1
    26    23    25    1
    27    23    26    1
    28    26    27    1
    29    27    28    1
    30    28    29    1
    31    28    30    1
    32    22    31   ar
    33    28    31    1
    34    31    32   ar
    35    32    33   ar
    36    20    33   ar
    37    19    34   ar
    38    34    35   ar
    39    16    35   ar
    40     4    36    1
    41     4    37    1
    42     4    38    1
    43     5    39    1
    44     5    40    1
    45     6    41    1
    46     6    42    1
    47     7    43    1
    48     7    44    1
    49     7    45    1
    50     9    46    1
    51    10    47    1
    52    14    48    1
    53    15    49    1
    54    24    50    1
    55    24    51    1
    56    24    52    1
    57    25    53    1
    58    25    54    1
    59    25    55    1
    60    26    56    1
    61    26    57    1
    62    27    58    1
    63    27    59    1
    64    29    60    1
    65    29    61    1
    66    29    62    1
    67    30    63    1
    68    30    64    1
    69    30    65    1
    70    34    66    1
    71    35    67    1
    72    68     1    1
    73    68    33    1
    74    68    18    1
    75    68    11    1
@<TRIPOS>MOLECULE
*****
 68 75 0 0 0
SMALL
GASTEIGER

@<TRIPOS>ATOM
      1 O          -0.1057   -0.2436   -0.9910 O.2     1  UNL1        0.0000
      2 C          -1.3016    0.6040   -0.6211 C.2     1  UNL1        0.0000
      3 N          -0.8949   -1.5488    3.0219 N.am    1  UNL1        0.0000
      4 C          -2.6587   -1.8076    2.3835 C.3     1  UNL1        0.0000
      5 C           0.3916   -2.2180    3.0922 C.3     1  UNL1        0.0000
      6 C           2.9465   -2.4427    2.3725 C.3     1  UNL1        0.0000
      7 C          -1.6280   -4.1811    0.1552 C.3     1  UNL1        0.0000
      8 C          -0.5131    2.5502    0.5994 C.ar    1  UNL1        0.0000
      9 C           1.2625    0.9297    1.0017 C.ar    1  UNL1        0.0000
     10 C          -0.4866   -0.4077   -4.2830 C.ar    1  UNL1        0.0000
     11 N           0.6203    2.7628   -1.1190 N.ar    1  UNL1        0.0000
     12 C           1.6019    2.3392   -2.2791 C.ar    1  UNL1        0.0000
     13 C          -1.5868    0.2976   -3.7378 C.ar    1  UNL1        0.0000
     14 C          -0.2617   -2.8028   -0.0414 C.ar    1  UNL1        0.0000
     15 C          -0.3568   -2.8161   -0.0465 C.ar    1  UNL1        0.0000
     16 C           0.2515   -1.2486   -2.6092 C.ar    1  UNL1        0.0000
     17 C           2.4878   -1.1371   -1.9106 C.ar    1  UNL1        0.0000
     18 N           1.2815   -0.6508    0.5617 N.ar    1  UNL1        0.0000
     19 C          -0.3813   -0.8868    0.9328 C.ar    1  UNL1        0.0000
     20 C          -1.2547   -0.8424    1.6475 C.ar    1  UNL1        0.0000
     21 N          -2.9618    0.8015   -0.5810 N.ar    1  UNL1        0.0000
     22 C          -1.3182   -0.2196   -2.0784 C.ar    1  UNL1        0.0000
     23 C          -0.7458   -4.3857   -2.0042 C.3     1  UNL1        0.0000
     24 C          -1.4996    1.0596    0.9150 C.3     1  UNL1        0.0000
     25 C           0.4145    1.3041   -2.4622 C.3     1  UNL1        0.0000
     26 C          -1.5747    0.9627    0.9208 C.3     1  UNL1        0.0000
     27 C          -2.7969   -0.3124    0.6005 C.3     1  UNL1        0.0000
     28 C           2.5887    0.4440    1.9470 C.3     1  UNL1        0.0000
     29 C           1.5620    0.9436    2.5737 C.3     1  UNL1        0.0000
     30 C          -3.0263   -2.5739    0.8983 C.3     1  UNL1        0.0000
     31 C          -1.0435    0.6849   -2.2260 C.ar    1  UNL1        0.0000
     32 N          -2.5293    3.4361    0.0938 N.ar    1  UNL1        0.0000
     33 N           0.1866    1.9930    2.4367 N.ar    1  UNL1        0.0000
     34 C          -0.3251   -0.1444    1.1279 C.ar    1  UNL1        0.0000
     35 C           0.2000    1.4321   -0.2421 C.ar    1  UNL1        0.0000
     36 H          -1.7950    0.4892    2.3726 H       1  UNL1        0.0000
     37 H          -1.0433   -4.2720    2.7160 H       1  UNL1        0.0000
     38 H          -0.3372    1.0746    3.3826 H       1  UNL1        0.0000
     39 H           0.0399   -2.9094   -1.9285 H       1  UNL1        0.0000
     40 H          -2.3944   -0.4702    2.8462 H       1  UNL1        0.0000
     41 H           3.5908   -1.5275    2.7001 H       1  UNL1        0.0000
     42 H          -2.8581   -1.0084   -1.6592 H       1  UNL1        0.0000
     43 H          -0.4089    1.5176   -4.4369 H       1  UNL1        0.0000
     44 H           2.4694    1.0931   -1.0188 H       1  UNL1        0.0000
     45 H           1.4069   -1.9681    0.5204 H       1  UNL1        0.0000
     46 H          -0.7342   -0.1899    3.3250 H       1  UNL1        0.0000
     47 H           0.2599   -3.2903   -3.1900 H       1  UNL1        0.0000
     48 H           3.9479   -1.5409   -2.0906 H       1  UNL1        0.0000
     49 H          -0.2383    1.1804    4.9011 H       1  UNL1        0.0000
     50 H          -0.9826   -3.0074    1.3430 H       1  UNL1        0.0000
     51 H          -1.1492   -1.8850   -1.7384 H       1  UNL1        0.0000
     52 H          -0.7110    3.3161   -1.0404 H       1  UNL1        0.0000
     53 H           1.4572   -3.4798   -2.5348 H       1  UNL1        0.0000
     54 H          -1.1606    2.1448   -1.2398 H       1  UNL1        0.0000
     55 H           0.8346   -1.8314   -0.6077 H       1  UNL1        0.0000
     56 H           2.9565    0.4394    0.1104 H       1  UNL1        0.0000
     57 H           1.3519   -2.7000   -3.6280 H       1  UNL1        0.0000
     58 H          -1.3567   -1.8157   -3.8157 H       1  UNL1        0.0000
     59 H           0.8801   -0.4216    2.6526 H       1  UNL1        0.0000
     60 H          -2.8749    2.2199   -0.5473 H       1  UNL1        0.0000
     61 H           1.1760    0.1696   -3.8839 H       1  UNL1        0.0000
     62 H           2.0278    1.8648   -5.0274 H       1  UNL1        0.0000
     63 H           0.9379    3.7542   -0.2053 H       1  UNL1        0.0000
     64 H           2.8570   -0.6056   -0.5779 H       1  UNL1        0.0000
     65 H          -2.2479   -2.9774    1.3343 H       1  UNL1        0.0000
     66 H          -2.3634    1.6673    1.9046 H       1  UNL1        0.0000
     67 H           2.8240    1.9612    1.6062 H       1  UNL1        0.0000
     68 EU          1.6475    1.4943   -0.1879 Eu      1  UNL1        0.0000
@<TRIPOS>BOND
     1     1     2    2
     2     2     3   am
     3     3     4    1
     4     3     5    1
     5     5     6    1
     6     6     7    1
     7     2     8    1
     8     8     9   ar
     9     9    10   ar
    10     8    11   ar
    11    11    12   ar
    12    12    13   ar
    13    10    13   ar
    14    13    14   ar
    15    14    15   ar
    16    15    16   ar
    17    16    17   ar
    18    12    17   ar
    19    17    18   ar
    20    18    19   ar
    21    19    20    1
    22    20    21   ar
    23    21    22   ar
    24    22    23    1
    25    23    24    1
    26    23    25    1
    27    23    26    1
    28    26    27    1
    29    27    28    1
    30    28    29    1
    31    28    30    1
    32    22    31   ar
    33    28    31    1
    34    31    32   ar
    35    32    33   ar
    36    20    33   ar
    37    19    34   ar
    38    34    35   ar
    39    16    35   ar
    40     4    36    1
    41     4    37    1
    42     4    38    1
    43     5    39    1
    44     5    40    1
    45     6    41    1
    46     6    42    1
    47     7    43    1
    48     7    44    1
    49     7    45    1
    50     9    46    1
    51    10    47    1
    52    14    48    1
    53    15    49    1
    54    24    50    1
    55    24    51    1
    56    24    52    1
    57    25    53    1
    58    25    54    1
    59    25    55    1
    60    26    56    1
    61    26    57    1
    62    27    58    1
    63    27    59    1
    64    29    60    1
    65    29    61    1
    66    29    62    1
    67    30    63    1
    68    30    64    1
    69    30    65    1
    70    34    66    1
    71    35    67    1
    72    68     1    1
    73    68    33    1
    74    68    18    1
    75    68    11    1
@<TRIPOS>MOLECULE
*****
 68 75 0 0 0
SMALL
GASTEIGER

@<TRIPOS>ATOM
      1 O          -0.1057   -0.2436   -0.9910 O.2     1  UNL1        0.0000
      2 C          -1.3016    0.6040   -0.6211 C.2     1  UNL1        0.0000
      3 N          -0.8949   -1.5488    3.0219 N.am    1  UNL1        0.0000
      4 C          -2.6587   -1.8076    2.3835 C.3     1  UNL1        0.0000
      5 C           0.3916   -2.2180    3.0922 C.3     1  UNL1        0.0000
      6 C           2.9465   -2.4427    2.3725 C.3     1  UNL1        0.0000
      7 C          -1.6280   -4.1811    0.1552 C.3     1  UNL1        0.0000
      8 C          -0.5131    2.5502    0.5994 C.ar    1  UNL1        0.0000
      9 C           1.2625    0.9297    1.0017 C.ar    1  UNL1        0.0000
     10 C          -0.4866   -0.4077   -4.2830 C.ar    1  UNL1        0.0000
     11 N           0.6203    2.7628   -1.1190 N.ar    1  UNL1        0.0000
     12 C           1.6019    2.3392   -2.2791 C.ar    1  UNL1        0.0000
     13 C          -1.5868    0.2976   -3.7378 C.ar    1  UNL1        0.0000
     14 C          -0.2617   -2.8028   -0.0414 C.ar    1  UNL1        0.0000
     15 C          -0.3568   -2.8161   -0.0465 C.ar    1  UNL1        0.0000
     16 C           0.2515   -1.2486   -2.6092 C.ar    1  UNL1        0.0000
     17 C           2.4878   -1.1371   -1.9106 C.ar    1  UNL1        0.0000
     18 N           1.2815   -0.6508    0.5617 N.ar    1  UNL1        0.0000
     19 C          -0.3813   -0.8868    0.9328 C.ar    1  UNL1        0.0000
     20 C          -1.2547   -0.8424    1.6475 C.ar    1  UNL1        0.0000
     21 N          -2.9618    0.8015   -0.5810 N.ar    1  UNL1        0.0000
     22 C          -1.3182   -0.2196   -2.0784 C.ar    1  UNL1        0.0000
     23 C          -0.7458   -4.3857   -2.0042 C.3     1  UNL1        0.0000
     24 C          -1.4996    1.0596    0.9150 C.3     1  UNL1        0.0000
     25 C           0.4145    1.3041   -2.4622 C.3     1  UNL1        0.0000
     26 C          -1.5747    0.9627    0.9208 C.3     1  UNL1        0.0000
     27 C          -2.7969   -0.3124    0.6005 C.3     1  UNL1        0.0000
     28 C           2.5887    0.4440    1.9470 C.3     1  UNL1        0.0000
     29 C           1.5620    0.9436    2.5737 C.3     1  UNL1        0.0000
     30 C          -3.0263   -2.5739    0.8983 C.3     1  UNL1        0.0000
     31 C          -1.0435    0.6849   -2.2260 C.ar    1  UNL1        0.0000
     32 N          -2.5293    3.4361    0.0938 N.ar    1  UNL1        0.0000
     33 N           0.1866    1.9930    2.4367 N.ar    1  UNL1        0.0000
     34 C          -0.3251   -0.1444    1.1279 C.ar    1  UNL1        0.0000
     35 C           0.2000    1.4321   -0.2421 C.ar    1  UNL1        0.0000
     36 H          -1.7950    0.4892    2.3726 H       1  UNL1        0.0000
     37 H          -1.0433   -4.2720    2.7160 H       1  UNL1        0.0000
     38 H          -0.3372    1.0746    3.3826 H       1  UNL1        0.0000
     39 H           0.0399   -2.9094   -1.9285 H       1  UNL1        0.0000
     40 H          -2.3944   -0.4702    2.8462 H       1  UNL1        0.0000
     41 H           3.5908   -1.5275    2.7001 H       1  UNL1        0.0000
     42 H          -2.8581   -1.0084   -1.6592 H       1  UNL1        0.0000
     43 H          -0.4089    1.5176   -4.4369 H       1  UNL1        0.0000
     44 H           2.4694    1.0931   -1.0188 H       1  UNL1        0.0000
     45 H           1.4069   -1.9681    0.5204 H       1  UNL1        0.0000
     46 H          -0.7342   -0.1899    3.3250 H       1  UNL1        0.0000
     47 H           0.2599   -3.2903   -3.1900 H       1  UNL1        0.0000
     48 H           3.9479   -1.5409   -2.0906 H       1  UNL1        0.0000
     49 H          -0.2383    1.1804    4.9011 H       1  UNL1        0.0000
     50 H          -0.9826   -3.0074    1.3430 H       1  UNL1        0.0000
     51 H          -1.1492   -1.8850   -1.7384 H       1  UNL1        0.0000
     52 H          -0.7110    3.3161   -1.0404 H       1  UNL1        0.0000
     53 H           1.4572   -3.4798   -2.5348 H       1  UNL1        0.0000
     54 H          -1.1606    2.1448   -1.2398 H       1  UNL1        0.0000
     55 H           0.8346   -1.8314   -0.6077 H       1  UNL1        0.0000
     56 H           2.9565    0.4394    0.1104 H       1  UNL1        0.0000
     57 H           1.3519   -2.7000   -3.6280 H       1  UNL1        0.0000
     58 H          -1.3567   -1.8157   -3.8157 H       1  UNL1        0.0000
     59 H           0.8801   -0.4216    2.6526 H       1  UNL1        0.0000
     60 H          -2.8749    2.2199   -0.5473 H       1  UNL1        0.0000
     61 H           1.1760    0.1696   -3.8839 H       1  UNL1        0.0000
     62 H           2.0278    1.8648   -5.0274 H       1  UNL1        0.0000
     63 H           0.9379    3.7542   -0.2053 H       1  UNL1        0.0000
     64 H           2.8570   -0.6056   -0.5779 H       1  UNL1        0.0000
     65 H          -2.2479   -2.9774    1.3343 H       1  UNL1        0.0000
     66 H          -2.3634    1.6673    1.9046 H       1  UNL1        0.0000
     67 H           2.8240    1.9612    1.6062 H       1  UNL1        0.0000
     68 EU          1.6475    1.4943   -0.1879 Eu      1  UNL1        0.0000
@<TRIPOS>BOND
     1     1     2    2
     2     2     3   am
     3     3     4    1
     4     3     5    1
     5     5     6    1
     6     6     7    1
     7     2     8    1
     8     8     9   ar
     9     9    10   ar
    10     8    11   ar
    11    11    12   ar
    12    12    13   ar
    13    10    13   ar
    14    13    14   ar
    15    14    15   ar
    16    15    16   ar
    17    16    17   ar
    18    12    17   ar
    19    17    18   ar
    20    18    19   ar
    21    19    20    1
    22    20    21   ar
    23    21    22   ar
    24    22    23    1
    25    23    24    1
    26    23    25    1
    27    23    26    1
    28    26    27    1
    29    27    28    1
    30    28    29    1
    31    28    30    1
    32    22    31   ar
    33    28    31    1
    34    31    32   ar
    35    32    33   ar
    36    20    33   ar
    37    19    34   ar
    38    34    35   ar
    39    16    35   ar
    40     4    36    1
    41     4    37    1
    42     4    38    1
    43     5    39    1
    44     5    40    1
    45     6    41    1
    46     6    42    1
    47     7    43    1
    48     7    44    1
    49     7    45    1
    50     9    46    1
    51    10    47    1
    52    14    48    1
    53    15    49    1
    54    24    50    1
    55    24    51    1
    56    24    52    1
    57    25    53    1
    58    25    54    1
    59    25    55    1
    60    26    56    1
    61    26    57    1
    62    27    58    1
    63    27    59    1
    64    29    60    1
    65    29    61    1
    66    29    62    1
    67    30    63    1
    68    30    64    1
    69    30    65    1
    70    34    66    1
    71    35    67    1
    72    68     1    1
    73    68    33    1
    74    68    18    1
    75    68    11    1
@<TRIPOS>MOLECULE
*****
 68 75 0 0 0
SMALL
GASTEIGER

@<TRIPOS>ATOM
      1 O          -0.1057   -0.2436   -0.9910 O.2     1  UNL1        0.0000
      2 C          -1.3016    0.6040   -0.6211 C.2     1  UNL1        0.0000
      3 N          -0.8949   -1.5488    3.0219 N.am    1  UNL1        0.0000
      4 C          -2.6587   -1.8076    2.3835 C.3     1  UNL1        0.0000
      5 C           0.3916   -2.2180    3.0922 C.3     1  UNL1        0.0000
      6 C           2.9465   -2.4427    2.3725 C.3     1  UNL1        0.0000
      7 C          -1.6280   -4.1811    0.1552 C.3     1  UNL1        0.0000
      8 C          -0.5131    2.5502    0.5994 C.ar    1  UNL1        0.0000
      9 C           1.2625    0.9297    1.0017 C.ar    1  UNL1        0.0000
     10 C          -0.4866   -0.4077   -4.2830 C.ar    1  UNL1        0.0000
     11 N           0.6203    2.7628   -1.1190 N.ar    1  UNL1        0.0000
     12 C           1.6019    2.3392   -2.2791 C.ar    1  UNL1        0.0000
     13 C          -1.5868    0.2976   -3.7378 C.ar    1  UNL1        0.0000
     14 C          -0.2617   -2.8028   -0.0414 C.ar    1  UNL1        0.0000
     15 C          -0.3568   -2.8161   -0.0465 C.ar    1  UNL1        0.0000
     16 C           0.2515   -1.2486   -2.6092 C.ar    1  UNL1        0.0000
     17 C           2.4878   -1.1371   -1.9106 C.ar    1  UNL1        0.0000
     18 N           1.2815   -0.6508    0.5617 N.ar    1  UNL1        0.0000
     19 C          -0.3813   -0.8868    0.9328 C.ar    1  UNL1        0.0000
     20 C          -1.2547   -0.8424    1.6475 C.ar    1  UNL1        0.0000
     21 N          -2.9618    0.8015   -0.5810 N.ar    1  UNL1        0.0000
     22 C          -1.3182   -0.2196   -2.0784 C.ar    1  UNL1        0.0000
     23 C          -0.7458   -4.3857   -2.0042 C.3     1  UNL1        0.0000
     24 C          -1.4996    1.0596    0.9150 C.3     1  UNL1        0.0000
     25 C           0.4145    1.3041   -2.4622 C.3     1  UNL1        0.0000
     26 C          -1.5747    0.9627    0.9208 C.3     1  UNL1        0.0000
     27 C          -2.7969   -0.3124    0.6005 C.3     1  UNL1        0.0000
     28 C           2.5887    0.4440    1.9470 C.3     1  UNL1        0.0000
     29 C           1.5620    0.9436    2.5737 C.3     1  UNL1        0.0000
     30 C          -3.0263   -2.5739    0.8983 C.3     1  UNL1        0.0000
     31 C          -1.0435    0.6849   -2.2260 C.ar    1  UNL1        0.0000
     32 N          -2.5293    3.4361    0.0938 N.ar    1  UNL1        0.0000
     33 N           0.1866    1.9930    2.4367 N.ar    1  UNL1        0.0000
     34 C          -0.3251   -0.1444    1.1279 C.ar    1  UNL1        0.0000
     35 C           0.2000    1.4321   -0.2421 C.ar    1  UNL1        0.0000
     36 H          -1.7950    0.4892    2.3726 H       1  UNL1        0.0000
     37 H          -1.0433   -4.2720    2.7160 H       1  UNL1        0.0000
     38 H          -0.3372    1.0746    3.3826 H       1  UNL1        0.0000
     39 H           0.0399   -2.9094   -1.9285 H       1  UNL1        0.0000
     40 H          -2.3944   -0.4702    2.8462 H       1  UNL1        0.0000
     41 H           3.5908   -1.5275    2.7001 H       1  UNL1        0.0000
     42 H          -2.8581   -1.0084   -1.6592 H       1  UNL1        0.0000
     43 H          -0.4089    1.5176   -4.4369 H       1  UNL1        0.0000
     44 H           2.4694    1.0931   -1.0188 H       1  UNL1        0.0000
     45 H           1.4069   -1.9681    0.5204 H       1  UNL1        0.0000
     46 H          -0.7342   -0.1899    3.3250 H       1  UNL1        0.0000
     47 H           0.2599   -3.2903   -3.1900 H       1  UNL1        0.0000
     48 H           3.9479   -1.5409   -2.0906 H       1  UNL1        0.0000
     49 H          -0.2383    1.1804    4.9011 H       1  UNL1        0.0000
     50 H          -0.9826   -3.0074    1.3430 H       1  UNL1        0.0000
     51 H          -1.1492   -1.8850   -1.7384 H       1  UNL1        0.0000
     52 H          -0.7110    3.3161   -1.0404 H       1  UNL1        0.0000
     53 H           1.4572   -3.4798   -2.5348 H       1  UNL1        0.0000
     54 H          -1.1606    2.1448   -1.2398 H       1  UNL1        0.0000
     55 H           0.8346   -1.8314   -0.6077 H       1  UNL1        0.0000
     56 H           2.9565    0.4394    0.1104 H       1  UNL1        0.0000
     57 H           1.3519   -2.7000   -3.6280 H       1  UNL1        0.0000
     58 H          -1.3567   -1.8157   -3.8157 H       1  UNL1        0.0000
     59 H           0.8801   -0.4216    2.6526 H       1  UNL1        0.0000
     60 H          -2.8749    2.2199   -0.5473 H       1  UNL1        0.0000
     61 H           1.1760    0.1696   -3.8839 H       1  UNL1        0.0000
     62 H           2.0278    1.8648   -5.0274 H       1  UNL1        0.0000
     63 H           0.9379    3.7542   -0.2053 H       1  UNL1        0.0000
     64 H           2.8570   -0.6056   -0.5779 H       1  UNL1        0.0000
     65 H          -2.2479   -2.9774    1.3343 H       1  UNL1        0.0000
     66 H          -2.3634    1.6673    1.9046 H       1  UNL1        0.0000
     67 H           2.8240    1.9612    1.6062 H       1  UNL1        0.0000
     68 EU          1.6475    1.4943   -0.1879 Eu      1  UNL1        0.0000
@<TRIPOS>BOND
     1     1     2    2
     2     2     3   am
     3     3     4    1
     4     3     5    1
     5     5     6    1
     6     6     7    1
     7     2     8    1
     8     8     9   ar
     9     9    10   ar
    10     8    11   ar
    11    11    12   ar
    12    12    13   ar
    13    10    13   ar
    14    13    14   ar
    15    14    15   ar
    16    15    16   ar
    17    16    17   ar
    18    12    17   ar
    19    17    18   ar
    20    18    19   ar
    21    19    20    1
    22    20    21   ar
    23    21    22   ar
    24    22    23    1
    25    23    24    1
    26    23    25    1
    27    23    26    1
    28    26    27    1
    29    27    28    1
    30    28    29    1
    31    28    30    1
    32    22    31   ar
    33    28    31    1
    34    31    32   ar
    35    32    33   ar
    36    20    33   ar
    37    19    34   ar
    38    34    35   ar
    39    16    35   ar
    40     4    36    1
    41     4    37    1
    42     4    38    1
    43     5    39    1
    44     5    40    1
    45     6    41    1
    46     6    42    1
    47     7    43    1
    48     7    44    1
    49     7    45    1
    50     9    46    1
    51    10    47    1
    52    14    48    1
    53    15    49    1
    54    24    50    1
    55    24    51    1
    56    24    52    1
    57    25    53    1
    58    25    54    1
    59    25    55    1
    60    26    56    1
    61    26    57    1
    62    27    58    1
    63    27    59    1
    64    29    60    1
    65    29    61    1
    66    29    62    1
    67    30    63    1
    68    30    64    1
    69    30    65    1
    70    34    66    1
    71    35    67    1
    72    68     1    1
    73    68    33    1
    74    68    18    1
    75    68    11    1
@<TRIPOS>MOLECULE
*****
 68 75 0 0 0
SMALL
GASTEIGER

@<TRIPOS>ATOM
      1 O          -0.1057   -0.2436   -0.9910 O.2     1  UNL1        0.0000
      2 C          -1.3016    0.6040   -0.6211 C.2     1  UNL1        0.0000
      3 N          -0.8949   -1.5488    3.0219 N.am    1  UNL1        0.0000
      4 C          -2.6587   -1.8076    2.3835 C.3     1  UNL1        0.0000
      5 C           0.3916   -2.2180    3.0922 C.3     1  UNL1        0.0000
      6 C           2.9465   -2.4427    2.3725 C.3     1  UNL1        0.0000
      7 C          -1.6280   -4.1811    0.1552 C.3     1  UNL1        0.0000
      8 C          -0.5131    2.5502    0.5994 C.ar    1  UNL1        0.0000
      9 C           1.2625    0.9297    1.0017 C.ar    1  UNL1        0.0000
     10 C          -0.4866   -0.4077   -4.2830 C.ar    1  UNL1        0.0000
     11 N           0.6203    2.7628   -1.1190 N.ar    1  UNL1        0.0000
     12 C           1.6019    2.3392   -2.2791 C.ar    1  UNL1        0.0000
     13 C          -1.5868    0.2976   -3.7378 C.ar    1  UNL1        0.0000
     14 C          -0.2617   -2.8028   -0.0414 C.ar    1  UNL1        0.0000
     15 C          -0.3568   -2.8161   -0.0465 C.ar    1  UNL1        0.0000
     16 C           0.2515   -1.2486   -2.6092 C.ar    1  UNL1        0.0000
     17 C           2.4878   -1.1371   -1.9106 C.ar    1  UNL1        0.0000
     18 N           1.2815   -0.6508    0.5617 N.ar    1  UNL1        0.0000
     19 C          -0.3813   -0.8868    0.9328 C.ar    1  UNL1        0.0000
     20 C          -1.2547   -0.8424    1.6475 C.ar    1  UNL1        0.0000
     21 N          -2.9618    0.8015   -0.5810 N.ar    1  UNL1        0.0000
     22 C          -1.3182   -0.2196   -2.0784 C.ar    1  UNL1        0.0000
     23 C          -0.7458   -4.3857   -2.0042 C.3     1  UNL1        0.0000
     24 C          -1.4996    1.0596    0.9150 C.3     1  UNL1        0.0000
     25 C           0.4145    1.3041   -2.4622 C.3     1  UNL1        0.0000
     26 C          -1.5747    0.9627    0.9208 C.3     1  UNL1        0.0000
     27 C          -2.7969   -0.3124    0.6005 C.3     1  UNL1        0.0000
     28 C           2.5887    0.4440    1.9470 C.3     1  UNL1        0.0000
     29 C           1.5620    0.9436    2.5737 C.3     1  UNL1        0.0000
     30 C          -3.0263   -2.5739    0.8983 C.3     1  UNL1        0.0000
     31 C          -1.0435    0.6849   -2.2260 C.ar    1  UNL1        0.0000
     32 N          -2.5293    3.4361    0.0938 N.ar    1  UNL1        0.0000
     33 N           0.1866    1.9930    2.4367 N.ar    1  UNL1        0.0000
     34 C          -0.3251   -0.1444    1.1279 C.ar    1  UNL1        0.0000
     35 C           0.2000    1.4321   -0.2421 C.ar    1  UNL1        0.0000
     36 H          -1.7950    0.4892    2.3726 H       1  UNL1        0.0000
     37 H          -1.0433   -4.2720    2.7160 H       1  UNL1        0.0000
     38 H          -0.3372    1.0746    3.3826 H       1  UNL1        0.0000
     39 H           0.0399   -2.9094   -1.9285 H       1  UNL1        0.0000
     40 H          -2.3944   -0.4702    2.8462 H       1  UNL1        0.0000
     41 H           3.5908   -1.5275    2.7001 H       1  UNL1        0.0000
     42 H          -2.8581   -1.0084   -1.6592 H       1  UNL1        0.0000
     43 H          -0.4089    1.5176   -4.4369 H       1  UNL1        0.0000
     44 H           2.4694    1.0931   -1.0188 H       1  UNL1        0.0000
     45 H           1.4069   -1.9681    0.5204 H       1  UNL1        0.0000
     46 H          -0.7342   -0.1899    3.3250 H       1  UNL1        0.0000
     47 H           0.2599   -3.2903   -3.1900 H       1  UNL1        0.0000
     48 H           3.9479   -1.5409   -2.0906 H       1  UNL1        0.0000
     49 H          -0.2383    1.1804    4.9011 H       1  UNL1        0.0000
     50 H          -0.9826   -3.0074    1.3430 H       1  UNL1        0.0000
     51 H          -1.1492   -1.8850   -1.7384 H       1  UNL1        0.0000
     52 H          -0.7110    3.3161   -1.0404 H       1  UNL1        0.0000
     53 H           1.4572   -3.4798   -2.5348 H       1  UNL1        0.0000
     54 H          -1.1606    2.1448   -1.2398 H       1  UNL1        0.0000
     55 H           0.8346   -1.8314   -0.6077 H       1  UNL1        0.0000
     56 H           2.9565    0.4394    0.1104 H       1  UNL1        0.0000
     57 H           1.3519   -2.7000   -3.6280 H       1  UNL1        0.0000
     58 H          -1.3567   -1.8157   -3.8157 H       1  UNL1        0.0000
     59 H           0.8801   -0.4216    2.6526 H       1  UNL1        0.0000
     60 H          -2.8749    2.2199   -0.5473 H       1  UNL1        0.0000
     61 H           1.1760    0.1696   -3.8839 H       1  UNL1        0.0000
     62 H           2.0278    1.8648   -5.0274 H       1  UNL1        0.0000
     63 H           0.9379    3.7542   -0.2053 H       1  UNL1        0.0000
     64 H           2.8570   -0.6056   -0.5779 H       1  UNL1        0.0000
     65 H          -2.2479   -2.9774    1.3343 H       1  UNL1        0.0000
     66 H          -2.3634    1.6673    1.9046 H       1  UNL1        0.0000
     67 H           2.8240    1.9612    1.6062 H       1  UNL1        0.0000
     68 EU          1.6475    1.4943   -0.1879 Eu      1  UNL1        0.0000
@<TRIPOS>BOND
     1     1     2    2
     2     2     3   am
     3     3     4    1
     4     3     5    1
     5     5     6    1
     6     6     7    1
     7     2     8    1
     8     8     9   ar
     9     9    10   ar
    10     8    11   ar
    11    11    12   ar
    12    12    13   ar
    13    10    13   ar
    14    13    14   ar
    15    14    15   ar
    16    15    16   ar
    17    16    17   ar
    18    12    17   ar
    19    17    18   ar
    20    18    19   ar
    21    19    20    1
    22    20    21   ar
    23    21    22   ar
    24    22    23    1
    25    23    24    1
    26    23    25    1
    27    23    26    1
    28    26    27    1
    29    27    28    1
    30    28    29    1
    31    28    30    1
    32    22    31   ar
    33    28    31    1
    34    31    32   ar
    35    32    33   ar
    36    20    33   ar
    37    19    34   ar
    38    34    35   ar
    39    16    35   ar
    40     4    36    1
    41     4    37    1
    42     4    38    1
    43     5    39    1
    44     5    40    1
    45     6    41    1
    46     6    42    1
    47     7    43    1
    48     7    44    1
    49     7    45    1
    50     9    46    1
    51    10    47    1
    52    14    48    1
    53    15    49    1
    54    24    50    1
    55    24    51    1
    56    24    52    1
    57    25    53    1
    58    25    54    1
    59    25    55    1
    60    26    56    1
    61    26    57    1
    62    27    58    1
    63    27    59    1
    64    29    60    1
    65    29    61    1
    66    29    62    1
    67    30    63    1
    68    30    64    1
    69    30    65    1
    70    34    66    1
    71    35    67    1
    72    68     1    1
    73    68    33    1
    74    68    18    1
    75    68    11    1
@<TRIPOS>MOLECULE
*****
 68 75 0 0 0
SMALL
GASTEIGER

@<TRIPOS>ATOM
      1 O          -0.1057   -0.2436   -0.9910 O.2     1  UNL1        0.0000
      2 C          -1.3016    0.6040   -0.6211 C.2     1  UNL1        0.0000
      3 N          -0.8949   -1.5488    3.0219 N.am    1  UNL1        0.0000
      4 C          -2.6587   -1.8076    2.3835 C.3     1  UNL1        0.0000
      5 C           0.3916   -2.2180    3.0922 C.3     1  UNL1        0.0000
      6 C           2.9465   -2.4427    2.3725 C.3     1  UNL1        0.0000
      7 C          -1.6280   -4.1811    0.1552 C.3     1  UNL1        0.0000
      8 C          -0.5131    2.5502    0.5994 C.ar    1  UNL1        0.0000
      9 C           1.2625    0.9297    1.0017 C.ar    1  UNL1        0.0000
     10 C          -0.4866   -0.4077   -4.2830 C.ar    1  UNL1        0.0000
     11 N           0.6203    2.7628   -1.1190 N.ar    1  UNL1        0.0000
     12 C           1.6019    2.3392   -2.2791 C.ar    1  UNL1        0.0000
     13 C          -1.5868    0.2976   -3.7378 C.ar    1  UNL1        0.0000
     14 C          -0.2617   -2.8028   -0.0414 C.ar    1  UNL1        0.0000
     15 C          -0.3568   -2.8161   -0.0465 C.ar    1  UNL1        0.0000
     16 C           0.2515   -1.2486   -2.6092 C.ar    1  UNL1        0.0000
     17 C           2.4878   -1.1371   -1.9106 C.ar    1  UNL1        0.0000
     18 N           1.2815   -0.6508    0.5617 N.ar    1  UNL1        0.0000
     19 C          -0.3813   -0.8868    0.9328 C.ar    1  UNL1        0.0000
     20 C          -1.2547   -0.8424    1.6475 C.ar    1  UNL1        0.0000
     21 N          -2.9618    0.8015   -0.5810 N.ar    1  UNL1        0.0000
     22 C          -1.3182   -0.2196   -2.0784 C.ar    1  UNL1        0.0000
     23 C          -0.7458   -4.3857   -2.0042 C.3     1  UNL1        0.0000
     24 C          -1.4996    1.0596    0.9150 C.3     1  UNL1        0.0000
     25 C           0.4145    1.3041   -2.4622 C.3     1  UNL1        0.0000
     26 C          -1.5747    0.9627    0.9208 C.3     1  UNL1        0.0000
     27 C          -2.7969   -0.3124    0.6005 C.3     1  UNL1        0.0000
     28 C           2.5887    0.4440    1.9470 C.3     1  UNL1        0.0000
     29 C           1.5620    0.9436    2.5737 C.3     1  UNL1        0.0000
     30 C          -3.0263   -2.5739    0.8983 C.3     1  UNL1        0.0000
     31 C          -1.0435    0.6849   -2.2260 C.ar    1  UNL1        0.0000
     32 N          -2.5293    3.4361    0.0938 N.ar    1  UNL1        0.0000
     33 N           0.1866    1.9930    2.4367 N.ar    1  UNL1        0.0000
     34 C          -0.3251   -0.1444    1.1279 C.ar    1  UNL1        0.0000
     35 C           0.2000    1.4321   -0.2421 C.ar    1  UNL1        0.0000
     36 H          -1.7950    0.4892    2.3726 H       1  UNL1        0.0000
     37 H          -1.0433   -4.2720    2.7160 H       1  UNL1        0.0000
     38 H          -0.3372    1.0746    3.3826 H       1  UNL1        0.0000
     39 H           0.0399   -2.9094   -1.9285 H       1  UNL1        0.0000
     40 H          -2.3944   -0.4702    2.8462 H       1  UNL1        0.0000
     41 H           3.5908   -1.5275    2.7001 H       1  UNL1        0.0000
     42 H          -2.8581   -1.0084   -1.6592 H       1  UNL1        0.0000
     43 H          -0.4089    1.5176   -4.4369 H       1  UNL1        0.0000
     44 H           2.4694    1.0931   -1.0188 H       1  UNL1        0.0000
     45 H           1.4069   -1.9681    0.5204 H       1  UNL1        0.0000
     46 H          -0.7342   -0.1899    3.3250 H       1  UNL1        0.0000
     47 H           0.2599   -3.2903   -3.1900 H       1  UNL1        0.0000
     48 H           3.9479   -1.5409   -2.0906 H       1  UNL1        0.0000
     49 H          -0.2383    1.1804    4.9011 H       1  UNL1        0.0000
     50 H          -0.9826   -3.0074    1.3430 H       1  UNL1        0.0000
     51 H          -1.1492   -1.8850   -1.7384 H       1  UNL1        0.0000
     52 H          -0.7110    3.3161   -1.0404 H       1  UNL1        0.0000
     53 H           1.4572   -3.4798   -2.5348 H       1  UNL1        0.0000
     54 H          -1.1606    2.1448   -1.2398 H       1  UNL1        0.0000
     55 H           0.8346   -1.8314   -0.6077 H       1  UNL1        0.0000
     56 H           2.9565    0.4394    0.1104 H       1  UNL1        0.0000
     57 H           1.3519   -2.7000   -3.6280 H       1  UNL1        0.0000
     58 H          -1.3567   -1.8157   -3.8157 H       1  UNL1        0.0000
     59 H           0.8801   -0.4216    2.6526 H       1  UNL1        0.0000
     60 H          -2.8749    2.2199   -0.5473 H       1  UNL1        0.0000
     61 H           1.1760    0.1696   -3.8839 H       1  UNL1        0.0000
     62 H           2.0278    1.8648   -5.0274 H       1  UNL1        0.0000
     63 H           0.9379    3.7542   -0.2053 H       1  UNL1        0.0000
     64 H           2.8570   -0.6056   -0.5779 H       1  UNL1        0.0000
     65 H          -2.2479   -2.9774    1.3343 H       1  UNL1        0.0000
     66 H          -2.3634    1.6673    1.9046 H       1  UNL1        0.0000
     67 H           2.8240    1.9612    1.6062 H       1  UNL1        0.0000
     68 EU          1.6475    1.4943   -0.1879 Eu      1  UNL1        0.0000
@<TRIPOS>BOND
     1     1     2    2
     2     2     3   am
     3     3     4    1
     4     3     5    1
     5     5     6    1
     6     6     7    1
     7     2     8    1
     8     8     9   ar
     9     9    10   ar
    10     8    11   ar
    11    11    12   ar
    12    12    13   ar
    13    10    13   ar
    14    13    14   ar
    15    14    15   ar
    16    15    16   ar
    17    16    17   ar
    18    12    17   ar
    19    17    18   ar
    20    18    19   ar
    21    19    20    1
    22    20    21   ar
    23    21    22   ar
    24    22    23    1
    25    23    24    1
    26    23    25    1
    27    23    26    1
    28    26    27    1
    29    27    28    1
    30    28    29    1
    31    28    30    1
    32    22    31   ar
    33    28    31    1
    34    31    32   ar
    35    32    33   ar
    36    20    33   ar
    37    19    34   ar
    38    34    35   ar
    39    16    35   ar
    40     4    36    1
    41     4    37    1
    42     4    38    1
    43     5    39    1
    44     5    40    1
    45     6    41    1
    46     6    42    1
    47     7    43    1
    48     7    44    1
    49     7    45    1
    50     9    46    1
    51    10    47    1
    52    14    48    1
    53    15    49    1
    54    24    50    1
    55    24    51    1
    56    24    52    1
    57    25    53    1
    58    25    54    1
    59    25    55    1
    60    26    56    1
    61    26    57    1
    62    27    58    1
    63    27    59    1
    64    29    60    1
    65    29    61    1
    66    29    62    1
    67    30    63    1
    68    30    64    1
    69    30    65    1
    70    34    66    1
    71    35    67    1
    72    68     1    1
    73    68    33    1
    74    68    18    1
    75    68    11    1
@<TRIPOS>MOLECULE
*****
 68 75 0 0 0
SMALL
GASTEIGER

@<TRIPOS>ATOM
      1 O          -0.1057   -0.2436   -0.9910 O.2     1  UNL1        0.0000
      2 C          -1.3016    0.6040   -0.6211 C.2     1  UNL1        0.0000
      3 N          -0.8949   -1.5488    3.0219 N.am    1  UNL1        0.0000
      4 C          -2.6587   -1.8076    2.3835 C.3     1  UNL1        0.0000
      5 C           0.3916   -2.2180    3.0922 C.3     1  UNL1        0.0000
      6 C           2.9465   -2.4427    2.3725 C.3     1  UNL1        0.0000
      7 C          -1.6280   -4.1811    0.1552 C.3     1  UNL1        0.0000
      8 C          -0.5131    2.5502    0.5994 C.ar    1  UNL1        0.0000
      9 C           1.2625    0.9297    1.0017 C.ar    1  UNL1        0.0000
     10 C          -0.4866   -0.4077   -4.2830 C.ar    1  UNL1        0.0000
     11 N           0.6203    2.7628   -1.1190 N.ar    1  UNL1        0.0000
     12 C           1.6019    2.3392   -2.2791 C.ar    1  UNL1        0.0000
     13 C          -1.5868    0.2976   -3.7378 C.ar    1  UNL1        0.0000
     14 C          -0.2617   -2.8028   -0.0414 C.ar    1  UNL1        0.0000
     15 C          -0.3568   -2.8161   -0.0465 C.ar    1  UNL1        0.0000
     16 C           0.2515   -1.2486   -2.6092 C.ar    1  UNL1        0.0000
     17 C           2.4878   -1.1371   -1.9106 C.ar    1  UNL1        0.0000
     18 N           1.2815   -0.6508    0.5617 N.ar    1  UNL1        0.0000
     19 C          -0.3813   -0.8868    0.9328 C.ar    1  UNL1        0.0000
     20 C          -1.2547   -0.8424    1.6475 C.ar    1  UNL1        0.0000
     21 N          -2.9618    0.8015   -0.5810 N.ar    1  UNL1        0.0000
     22 C          -1.3182   -0.2196   -2.0784 C.ar    1  UNL1        0.0000
     23 C          -0.7458   -4.3857   -2.0042 C.3     1  UNL1        0.0000
     24 C          -1.4996    1.0596    0.9150 C.3     1  UNL1        0.0000
     25 C           0.4145    1.3041   -2.4622 C.3     1  UNL1        0.0000
     26 C          -1.5747    0.9627    0.9208 C.3     1  UNL1        0.0000
     27 C          -2.7969   -0.3124    0.6005 C.3     1  UNL1        0.0000
     28 C           2.5887    0.4440    1.9470 C.3     1  UNL1        0.0000
     29 C           1.5620    0.9436    2.5737 C.3     1  UNL1        0.0000
     30 C          -3.0263   -2.5739    0.8983 C.3     1  UNL1        0.0000
     31 C          -1.0435    0.6849   -2.2260 C.ar    1  UNL1        0.0000
     32 N          -2.5293    3.4361    0.0938 N.ar    1  UNL1        0.0000
     33 N           0.1866    1.9930    2.4367 N.ar    1  UNL1        0.0000
     34 C          -0.3251   -0.1444    1.1279 C.ar    1  UNL1        0.0000
     35 C           0.2000    1.4321   -0.2421 C.ar    1  UNL1        0.0000
     36 H          -1.7950    0.4892    2.3726 H       1  UNL1        0.0000
     37 H          -1.0433   -4.2720    2.7160 H       1  UNL1        0.0000
     38 H          -0.3372    1.0746    3.3826 H       1  UNL1        0.0000
     39 H           0.0399   -2.9094   -1.9285 H       1  UNL1        0.0000
     40 H          -2.3944   -0.4702    2.8462 H       1  UNL1        0.0000
     41 H           3.5908   -1.5275    2.7001 H       1  UNL1        0.0000
     42 H          -2.8581   -1.0084   -1.6592 H       1  UNL1        0.0000
     43 H          -0.4089    1.5176   -4.4369 H       1  UNL1        0.0000
     44 H           2.4694    1.0931   -1.0188 H       1  UNL1        0.0000
     45 H           1.4069   -1.9681    0.5204 H       1  UNL1        0.0000
     46 H          -0.7342   -0.1899    3.3250 H       1  UNL1        0.0000
     47 H           0.2599   -3.2903   -3.1900 H       1  UNL1        0.0000
     48 H           3.9479   -1.5409   -2.0906 H       1  UNL1        0.0000
     49 H          -0.2383    1.1804    4.9011 H       1  UNL1        0.0000
     50 H          -0.9826   -3.0074    1.3430 H       1  UNL1        0.0000
     51 H          -1.1492   -1.8850   -1.7384 H       1  UNL1        0.0000
     52 H          -0.7110    3.3161   -1.0404 H       1  UNL1        0.0000
     53 H           1.4572   -3.4798   -2.5348 H       1  UNL1        0.0000
     54 H          -1.1606    2.1448   -1.2398 H       1  UNL1        0.0000
     55 H           0.8346   -1.8314   -0.6077 H       1  UNL1        0.0000
     56 H           2.9565    0.4394    0.1104 H       1  UNL1        0.0000
     57 H           1.3519   -2.7000   -3.6280 H       1  UNL1        0.0000
     58 H          -1.3567   -1.8157   -3.8157 H       1  UNL1        0.0000
     59 H           0.8801   -0.4216    2.6526 H       1  UNL1        0.0000
     60 H          -2.8749    2.2199   -0.5473 H       1  UNL1        0.0000
     61 H           1.1760    0.1696   -3.8839 H       1  UNL1        0.0000
     62 H           2.0278    1.8648   -5.0274 H       1  UNL1        0.0000
     63 H           0.9379    3.7542   -0.2053 H       1  UNL1        0.0000
     64 H           2.8570   -0.6056   -0.5779 H       1  UNL1        0.0000
     65 H          -2.2479   -2.9774    1.3343 H       1  UNL1        0.0000
     66 H          -2.3634    1.6673    1.9046 H       1  UNL1        0.0000
     67 H           2.8240    1.9612    1.6062 H       1  UNL1        0.0000
     68 EU          1.6475    1.4943   -0.1879 Eu      1  UNL1        0.0000
@<TRIPOS>BOND
     1     1     2    2
     2     2     3   am
     3     3     4    1
     4     3     5    1
     5     5     6    1
     6     6     7    1
     7     2     8    1
     8     8     9   ar
     9     9    10   ar
    10     8    11   ar
    11    11    12   ar
    12    12    13   ar
    13    10    13   ar
    14    13    14   ar
    15    14    15   ar
    16    15    16   ar
    17    16    17   ar
    18    12    17   ar
    19    17    18   ar
    20    18    19   ar
    21    19    20    1
    22    20    21   ar
    23    21    22   ar
    24    22    23    1
    25    23    24    1
    26    23    25    1
    27    23    26    1
    28    26    27    1
    29    27    28    1
    30    28    29    1
    31    28    30    1
    32    22    31   ar
    33    28    31    1
    34    31    32   ar
    35    32    33   ar
    36    20    33   ar
    37    19    34   ar
    38    34    35   ar
    39    16    35   ar
    40     4    36    1
    41     4    37    1
    42     4    38    1
    43     5    39    1
    44     5    40    1
    45     6    41    1
    46     6    42    1
    47     7    43    1
    48     7    44    1
    49     7    45    1
    50     9    46    1
    51    10    47    1
    52    14    48    1
    53    15    49    1
    54    24    50    1
    55    24    51    1
    56    24    52    1
    57    25    53    1
    58    25    54    1
    59    25    55    1
    60    26    56    1
    61    26    57    1
    62    27    58    1
    63    27    59    1
    64    29    60    1
    65    29    61    1
    66    29    62    1
    67    30    63    1
    68    30    64    1
    69    30    65    1
    70    34    66    1
    71    35    67    1
    72    68     1    1
    73    68    33    1
    74    68    18    1
    75    68    11    1
@<TRIPOS>MOLECULE
*****
 68 75 0 0 0
SMALL
GASTEIGER

@<TRIPOS>ATOM
      1 O          -0.1057   -0.2436   -0.9910 O.2     1  UNL1        0.0000
      2 C          -1.3016    0.6040   -0.6211 C.2     1  UNL1        0.0000
      3 N          -0.8949   -1.5488    3.0219 N.am    1  UNL1        0.0000
      4 C          -2.6587   -1.8076    2.3835 C.3     1  UNL1        0.0000
      5 C           0.3916   -2.2180    3.0922 C.3     1  UNL1        0.0000
      6 C           2.9465   -2.4427    2.3725 C.3     1  UNL1        0.0000
      7 C          -1.6280   -4.1811    0.1552 C.3     1  UNL1        0.0000
      8 C          -0.5131    2.5502    0.5994 C.ar    1  UNL1        0.0000
      9 C           1.2625    0.9297    1.0017 C.ar    1  UNL1        0.0000
     10 C          -0.4866   -0.4077   -4.2830 C.ar    1  UNL1        0.0000
     11 N           0.6203    2.7628   -1.1190 N.ar    1  UNL1        0.0000
     12 C           1.6019    2.3392   -2.2791 C.ar    1  UNL1        0.0000
     13 C          -1.5868    0.2976   -3.7378 C.ar    1  UNL1        0.0000
     14 C          -0.2617   -2.8028   -0.0414 C.ar    1  UNL1        0.0000
     15 C          -0.3568   -2.8161   -0.0465 C.ar    1  UNL1        0.0000
     16 C           0.2515   -1.2486   -2.6092 C.ar    1  UNL1        0.0000
     17 C           2.4878   -1.1371   -1.9106 C.ar    1  UNL1        0.0000
     18 N           1.2815   -0.6508    0.5617 N.ar    1  UNL1        0.0000
     19 C          -0.3813   -0.8868    0.9328 C.ar    1  UNL1        0.0000
     20 C          -1.2547   -0.8424    1.6475 C.ar    1  UNL1        0.0000
     21 N          -2.9618    0.8015   -0.5810 N.ar    1  UNL1        0.0000
     22 C          -1.3182   -0.2196   -2.0784 C.ar    1  UNL1        0.0000
     23 C          -0.7458   -4.3857   -2.0042 C.3     1  UNL1        0.0000
     24 C          -1.4996    1.0596    0.9150 C.3     1  UNL1        0.0000
     25 C           0.4145    1.3041   -2.4622 C.3     1  UNL1        0.0000
     26 C          -1.5747    0.9627    0.9208 C.3     1  UNL1        0.0000
     27 C          -2.7969   -0.3124    0.6005 C.3     1  UNL1        0.0000
     28 C           2.5887    0.4440    1.9470 C.3     1  UNL1        0.0000
     29 C           1.5620    0.9436    2.5737 C.3     1  UNL1        0.0000
     30 C          -3.0263   -2.5739    0.8983 C.3     1  UNL1        0.0000
     31 C          -1.0435    0.6849   -2.2260 C.ar    1  UNL1        0.0000
     32 N          -2.5293    3.4361    0.0938 N.ar    1  UNL1        0.0000
     33 N           0.1866    1.9930    2.4367 N.ar    1  UNL1        0.0000
     34 C          -0.3251   -0.1444    1.1279 C.ar    1  UNL1        0.0000
     35 C           0.2000    1.4321   -0.2421 C.ar    1  UNL1        0.0000
     36 H          -1.7950    0.4892    2.3726 H       1  UNL1        0.0000
     37 H          -1.0433   -4.2720    2.7160 H       1  UNL1        0.0000
     38 H          -0.3372    1.0746    3.3826 H       1  UNL1        0.0000
     39 H           0.0399   -2.9094   -1.9285 H       1  UNL1        0.0000
     40 H          -2.3944   -0.4702    2.8462 H       1  UNL1        0.0000
     41 H           3.5908   -1.5275    2.7001 H       1  UNL1        0.0000
     42 H          -2.8581   -1.0084   -1.6592 H       1  UNL1        0.0000
     43 H          -0.4089    1.5176   -4.4369 H       1  UNL1        0.0000
     44 H           2.4694    1.0931   -1.0188 H       1  UNL1        0.0000
     45 H           1.4069   -1.9681    0.5204 H       1  UNL1        0.0000
     46 H          -0.7342   -0.1899    3.3250 H       1  UNL1        0.0000
     47 H           0.2599   -3.2903   -3.1900 H       1  UNL1        0.0000
     48 H           3.9479   -1.5409   -2.0906 H       1  UNL1        0.0000
     49 H          -0.2383    1.1804    4.9011 H       1  UNL1        0.0000
     50 H          -0.9826   -3.0074    1.3430 H       1  UNL1        0.0000
     51 H          -1.1492   -1.8850   -1.7384 H       1  UNL1        0.0000
     52 H          -0.7110    3.3161   -1.0404 H       1  UNL1        0.0000
     53 H           1.4572   -3.4798   -2.5348 H       1  UNL1        0.0000
     54 H          -1.1606    2.1448   -1.2398 H       1  UNL1        0.0000
     55 H           0.8346   -1.8314   -0.6077 H       1  UNL1        0.0000
     56 H           2.9565    0.4394    0.1104 H       1  UNL1        0.0000
     57 H           1.3519   -2.7000   -3.6280 H       1  UNL1        0.0000
     58 H          -1.3567   -1.8157   -3.8157 H       1  UNL1        0.0000
     59 H           0.8801   -0.4216    2.6526 H       1  UNL1        0.0000
     60 H          -2.8749    2.2199   -0.5473 H       1  UNL1        0.0000
     61 H           1.1760    0.1696   -3.8839 H       1  UNL1        0.0000
     62 H           2.0278    1.8648   -5.0274 H       1  UNL1        0.0000
     63 H           0.9379    3.7542   -0.2053 H       1  UNL1        0.0000
     64 H           2.8570   -0.6056   -0.5779 H       1  UNL1        0.0000
     65 H          -2.2479   -2.9774    1.3343 H       1  UNL1        0.0000
     66 H          -2.3634    1.6673    1.9046 H       1  UNL1        0.0000
     67 H           2.8240    1.9612    1.6062 H       1  UNL1        0.0000
     68 EU          1.6475    1.4943   -0.1879 Eu      1  UNL1        0.0000
@<TRIPOS>BOND
     1     1     2    2
     2     2     3   am
     3     3     4    1
     4     3     5    1
     5     5     6    1
     6     6     7    1
     7     2     8    1
     8     8     9   ar
     9     9    10   ar
    10     8    11   ar
    11    11    12   ar
    12    12    13   ar
    13    10    13   ar
    14    13    14   ar
    15    14    15   ar
    16    15    16   ar
    17    16    17   ar
    18    12    17   ar
    19    17    18   ar
    20    18    19   ar
    21    19    20    1
    22    20    21   ar
    23    21    22   ar
    24    22    23    1
    25    23    24    1
    26    23    25    1
    27    23    26    1
    28    26    27    1
    29    27    28    1
    30    28    29    1
    31    28    30    1
    32    22    31   ar
    33    28    31    1
    34    31    32   ar
    35    32    33   ar
    36    20    33   ar
    37    19    34   ar
    38    34    35   ar
    39    16    35   ar
    40     4    36    1
    41     4    37    1
    42     4    38    1
    43     5    39    1
    44     5    40    1
    45     6    41    1
    46     6    42    1
    47     7    43    1
    48     7    44    1
    49     7    45    1
    50     9    46    1
    51    10    47    1
    52    14    48    1
    53    15    49    1
    54    24    50    1
    55    24    51    1
    56    24    52    1
    57    25    53    1
    58    25    54    1
    59    25    55    1
    60    26    56    1
    61    26    57    1
    62    27    58    1
    63    27    59    1
    64    29    60    1
    65    29    61    1
    66    29    62    1
    67    30    63    1
    68    30    64    1
    69    30    65    1
    70    34    66    1
    71    35    67    1
    72    68     1    1
    73    68    33    1
    74    68    18    1
    75    68    11    1
@<TRIPOS>MOLECULE
*****
 68 75 0 0 0
SMALL
GASTEIGER

@<TRIPOS>ATOM
      1 O          -0.1057   -0.2436   -0.9910 O.2     1  UNL1        0.0000
      2 C          -1.3016    0.6040   -0.6211 C.2     1  UNL1        0.0000
      3 N          -0.8949   -1.5488    3.0219 N.am    1  UNL1        0.0000
      4 C          -2.6587   -1.8076    2.3835 C.3     1  UNL1        0.0000
      5 C           0.3916   -2.2180    3.0922 C.3     1  UNL1        0.0000
      6 C           2.9465   -2.4427    2.3725 C.3     1  UNL1        0.0000
      7 C          -1.6280   -4.1811    0.1552 C.3     1  UNL1        0.0000
      8 C          -0.5131    2.5502    0.5994 C.ar    1  UNL1        0.0000
      9 C           1.2625    0.9297    1.0017 C.ar    1  UNL1        0.0000
     10 C          -0.4866   -0.4077   -4.2830 C.ar    1  UNL1        0.0000
     11 N           0.6203    2.7628   -1.1190 N.ar    1  UNL1        0.0000
     12 C           1.6019    2.3392   -2.2791 C.ar    1  UNL1        0.0000
     13 C          -1.5868    0.2976   -3.7378 C.ar    1  UNL1        0.0000
     14 C          -0.2617   -2.8028   -0.0414 C.ar    1  UNL1        0.0000
     15 C          -0.3568   -2.8161   -0.0465 C.ar    1  UNL1        0.0000
     16 C           0.2515   -1.2486   -2.6092 C.ar    1  UNL1        0.0000
     17 C           2.4878   -1.1371   -1.9106 C.ar    1  UNL1        0.0000
     18 N           1.2815   -0.6508    0.5617 N.ar    1  UNL1        0.0000
     19 C          -0.3813   -0.8868    0.9328 C.ar    1  UNL1        0.0000
     20 C          -1.2547   -0.8424    1.6475 C.ar    1  UNL1        0.0000
     21 N          -2.9618    0.8015   -0.5810 N.ar    1  UNL1        0.0000
     22 C          -1.3182   -0.2196   -2.0784 C.ar    1  UNL1        0.0000
     23 C          -0.7458   -4.3857   -2.0042 C.3     1  UNL1        0.0000
     24 C          -1.4996    1.0596    0.9150 C.3     1  UNL1        0.0000
     25 C           0.4145    1.3041   -2.4622 C.3     1  UNL1        0.0000
     26 C          -1.5747    0.9627    0.9208 C.3     1  UNL1        0.0000
     27 C          -2.7969   -0.3124    0.6005 C.3     1  UNL1        0.0000
     28 C           2.5887    0.4440    1.9470 C.3     1  UNL1        0.0000
     29 C           1.5620    0.9436    2.5737 C.3     1  UNL1        0.0000
     30 C          -3.0263   -2.5739    0.8983 C.3     1  UNL1        0.0000
     31 C          -1.0435    0.6849   -2.2260 C.ar    1  UNL1        0.0000
     32 N          -2.5293    3.4361    0.0938 N.ar    1  UNL1        0.0000
     33 N           0.1866    1.9930    2.4367 N.ar    1  UNL1        0.0000
     34 C          -0.3251   -0.1444    1.1279 C.ar    1  UNL1        0.0000
     35 C           0.2000    1.4321   -0.2421 C.ar    1  UNL1        0.0000
     36 H          -1.7950    0.4892    2.3726 H       1  UNL1        0.0000
     37 H          -1.0433   -4.2720    2.7160 H       1  UNL1        0.0000
     38 H          -0.3372    1.0746    3.3826 H       1  UNL1        0.0000
     39 H           0.0399   -2.9094   -1.9285 H       1  UNL1        0.0000
     40 H          -2.3944   -0.4702    2.8462 H       1  UNL1        0.0000
     41 H           3.5908   -1.5275    2.7001 H       1  UNL1        0.0000
     42 H          -2.8581   -1.0084   -1.6592 H       1  UNL1        0.0000
     43 H          -0.4089    1.5176   -4.4369 H       1  UNL1        0.0000
     44 H           2.4694    1.0931   -1.0188 H       1  UNL1        0.0000
     45 H           1.4069   -1.9681    0.5204 H       1  UNL1        0.0000
     46 H          -0.7342   -0.1899    3.3250 H       1  UNL1        0.0000
     47 H           0.2599   -3.2903   -3.1900 H       1  UNL1        0.0000
     48 H           3.9479   -1.5409   -2.0906 H       1  UNL1        0.0000
     49 H          -0.2383    1.1804    4.9011 H       1  UNL1        0.0000
     50 H          -0.9826   -3.0074    1.3430 H       1  UNL1        0.0000
     51 H          -1.1492   -1.8850   -1.7384 H       1  UNL1        0.0000
     52 H          -0.7110    3.3161   -1.0404 H       1  UNL1        0.0000
     53 H           1.4572   -3.4798   -2.5348 H       1  UNL1        0.0000
     54 H          -1.1606    2.1448   -1.2398 H       1  UNL1        0.0000
     55 H           0.8346   -1.8314   -0.6077 H       1  UNL1        0.0000
     56 H           2.9565    0.4394    0.1104 H       1  UNL1        0.0000
     57 H           1.3519   -2.7000   -3.6280 H       1  UNL1        0.0000
     58 H          -1.3567   -1.8157   -3.8157 H       1  UNL1        0.0000
     59 H           0.8801   -0.4216    2.6526 H       1  UNL1        0.0000
     60 H          -2.8749    2.2199   -0.5473 H       1  UNL1        0.0000
     61 H           1.1760    0.1696   -3.8839 H       1  UNL1        0.0000
     62 H           2.0278    1.8648   -5.0274 H       1  UNL1        0.0000
     63 H           0.9379    3.7542   -0.2053 H       1  UNL1        0.0000
     64 H           2.8570   -0.6056   -0.5779 H       1  UNL1        0.0000
     65 H          -2.2479   -2.9774    1.3343 H       1  UNL1        0.0000
     66 H          -2.3634    1.6673    1.9046 H       1  UNL1        0.0000
     67 H           2.8240    1.9612    1.6062 H       1  UNL1        0.0000
     68 EU          1.6475    1.4943   -0.1879 Eu      1  UNL1        0.0000
@<TRIPOS>BOND
     1     1     2    2
     2     2     3   am
     3     3     4    1
     4     3     5    1
     5     5     6    1
     6     6     7    1
     7     2     8    1
     8     8     9   ar
     9     9    10   ar
    10     8    11   ar
    11    11    12   ar
    12    12    13   ar
    13    10    13   ar
    14    13    14   ar
    15    14    15   ar
    16    15    16   ar
    17    16    17   ar
    18    12    17   ar
    19    17    18   ar
    20    18    19   ar
    21    19    20    1
    22    20    21   ar
    23    21    22   ar
    24    22    23    1
    25    23    24    1
    26    23    25    1
    27    23    26    1
    28    26    27    1
    29    27    28    1
    30    28    29    1
    31    28    30    1
    32    22    31   ar
    33    28    31    1
    34    31    32   ar
    35    32    33   ar
    36    20    33   ar
    37    19    34   ar
    38    34    35   ar
    39    16    35   ar
    40     4    36    1
    41     4    37    1
    42     4    38    1
    43     5    39    1
    44     5    40    1
    45     6    41    1
    46     6    42    1
    47     7    43    1
    48     7    44    1
    49     7    45    1
    50     9    46    1
    51    10    47    1
    52    14    48    1
    53    15    49    1
    54    24    50    1
    55    24    51    1
    56    24    52    1
    57    25    53    1
    58    25    54    1
    59    25    55    1
    60    26    56    1
    61    26    57    1
    62    27    58    1
    63    27    59    1
    64    29    60    1
    65    29    61    1
    66    29    62    1
    67    30    63    1
    68    30    64    1
    69    30    65    1
    70    34    66    1
    71    35    67    1
    72    68     1    1
    73    68    33    1
    74    68    18    1
    75    68    11    1
@<TRIPOS>MOLECULE
*****
 68 75 0 0 0
SMALL
GASTEIGER

@<TRIPOS>ATOM
      1 O          -0.1057   -0.2436   -0.9910 O.2     1  UNL1        0.0000
      2 C          -1.3016    0.6040   -0.6211 C.2     1  UNL1        0.0000
      3 N          -0.8949   -1.5488    3.0219 N.am    1  UNL1        0.0000
      4 C          -2.6587   -1.8076    2.3835 C.3     1  UNL1        0.0000
      5 C           0.3916   -2.2180    3.0922 C.3     1  UNL1        0.0000
      6 C           2.9465   -2.4427    2.3725 C.3     1  UNL1        0.0000
      7 C          -1.6280   -4.1811    0.1552 C.3     1  UNL1        0.0000
      8 C          -0.5131    2.5502    0.5994 C.ar    1  UNL1        0.0000
      9 C           1.2625    0.9297    1.0017 C.ar    1  UNL1        0.0000
     10 C          -0.4866   -0.4077   -4.2830 C.ar    1  UNL1        0.0000
     11 N           0.6203    2.7628   -1.1190 N.ar    1  UNL1        0.0000
     12 C           1.6019    2.3392   -2.2791 C.ar    1  UNL1        0.0000
     13 C          -1.5868    0.2976   -3.7378 C.ar    1  UNL1        0.0000
     14 C          -0.2617   -2.8028   -0.0414 C.ar    1  UNL1        0.0000
     15 C          -0.3568   -2.8161   -0.0465 C.ar    1  UNL1        0.0000
     16 C           0.2515   -1.2486   -2.6092 C.ar    1  UNL1        0.0000
     17 C           2.4878   -1.1371   -1.9106 C.ar    1  UNL1        0.0000
     18 N           1.2815   -0.6508    0.5617 N.ar    1  UNL1        0.0000
     19 C          -0.3813   -0.8868    0.9328 C.ar    1  UNL1        0.0000
     20 C          -1.2547   -0.8424    1.6475 C.ar    1  UNL1        0.0000
     21 N          -2.9618    0.8015   -0.5810 N.ar    1  UNL1        0.0000
     22 C          -1.3182   -0.2196   -2.0784 C.ar    1  UNL1        0.0000
     23 C          -0.7458   -4.3857   -2.0042 C.3     1  UNL1        0.0000
     24 C          -1.4996    1.0596    0.9150 C.3     1  UNL1        0.0000
     25 C           0.4145    1.3041   -2.4622 C.3     1  UNL1        0.0000
     26 C          -1.5747    0.9627    0.9208 C.3     1  UNL1        0.0000
     27 C          -2.7969   -0.3124    0.6005 C.3     1  UNL1        0.0000
     28 C           2.5887    0.4440    1.9470 C.3     1  UNL1        0.0000
     29 C           1.5620    0.9436    2.5737 C.3     1  UNL1        0.0000
     30 C          -3.0263   -2.5739    0.8983 C.3     1  UNL1        0.0000
     31 C          -1.0435    0.6849   -2.2260 C.ar    1  UNL1        0.0000
     32 N          -2.5293    3.4361    0.0938 N.ar    1  UNL1        0.0000
     33 N           0.1866    1.9930    2.4367 N.ar    1  UNL1        0.0000
     34 C          -0.3251   -0.1444    1.1279 C.ar    1  UNL1        0.0000
     35 C           0.2000    1.4321   -0.2421 C.ar    1  UNL1        0.0000
     36 H          -1.7950    0.4892    2.3726 H       1  UNL1        0.0000
     37 H          -1.0433   -4.2720    2.7160 H       1  UNL1        0.0000
     38 H          -0.3372    1.0746    3.3826 H       1  UNL1        0.0000
     39 H           0.0399   -2.9094   -1.9285 H       1  UNL1        0.0000
     40 H          -2.3944   -0.4702    2.8462 H       1  UNL1        0.0000
     41 H           3.5908   -1.5275    2.7001 H       1  UNL1        0.0000
     42 H          -2.8581   -1.0084   -1.6592 H       1  UNL1        0.0000
     43 H          -0.4089    1.5176   -4.4369 H       1  UNL1        0.0000
     44 H           2.4694    1.0931   -1.0188 H       1  UNL1        0.0000
     45 H           1.4069   -1.9681    0.5204 H       1  UNL1        0.0000
     46 H          -0.7342   -0.1899    3.3250 H       1  UNL1        0.0000
     47 H           0.2599   -3.2903   -3.1900 H       1  UNL1        0.0000
     48 H           3.9479   -1.5409   -2.0906 H       1  UNL1        0.0000
     49 H          -0.2383    1.1804    4.9011 H       1  UNL1        0.0000
     50 H          -0.9826   -3.0074    1.3430 H       1  UNL1        0.0000
     51 H          -1.1492   -1.8850   -1.7384 H       1  UNL1        0.0000
     52 H          -0.7110    3.3161   -1.0404 H       1  UNL1        0.0000
     53 H           1.4572   -3.4798   -2.5348 H       1  UNL1        0.0000
     54 H          -1.1606    2.1448   -1.2398 H       1  UNL1        0.0000
     55 H           0.8346   -1.8314   -0.6077 H       1  UNL1        0.0000
     56 H           2.9565    0.4394    0.1104 H       1  UNL1        0.0000
     57 H           1.3519   -2.7000   -3.6280 H       1  UNL1        0.0000
     58 H          -1.3567   -1.8157   -3.8157 H       1  UNL1        0.0000
     59 H           0.8801   -0.4216    2.6526 H       1  UNL1        0.0000
     60 H          -2.8749    2.2199   -0.5473 H       1  UNL1        0.0000
     61 H           1.1760    0.1696   -3.8839 H       1  UNL1        0.0000
     62 H           2.0278    1.8648   -5.0274 H       1  UNL1        0.0000
     63 H           0.9379    3.7542   -0.2053 H       1  UNL1        0.0000
     64 H           2.8570   -0.6056   -0.5779 H       1  UNL1        0.0000
     65 H          -2.2479   -2.9774    1.3343 H       1  UNL1        0.0000
     66 H          -2.3634    1.6673    1.9046 H       1  UNL1        0.0000
     67 H           2.8240    1.9612    1.6062 H       1  UNL1        0.0000
     68 EU          1.6475    1.4943   -0.1879 Eu      1  UNL1        0.0000
@<TRIPOS>BOND
     1     1     2    2
     2     2     3   am
     3     3     4    1
     4     3     5    1
     5     5     6    1
     6     6     7    1
     7     2     8    1
     8     8     9   ar
     9     9    10   ar
    10     8    11   ar
    11    11    12   ar
    12    12    13   ar
    13    10    13   ar
    14    13    14   ar
    15    14    15   ar
    16    15    16   ar
    17    16    17   ar
    18    12    17   ar
    19    17    18   ar
    20    18    19   ar
    21    19    20    1
    22    20    21   ar
    23    21    22   ar
    24    22    23    1
    25    23    24    1
    26    23    25    1
    27    23    26    1
    28    26    27    1
    29    27    28    1
    30    28    29    1
    31    28    30    1
    32    22    31   ar
    33    28    31    1
    34    31    32   ar
    35    32    33   ar
    36    20    33   ar
    37    19    34   ar
    38    34    35   ar
    39    16    35   ar
    40     4    36    1
    41     4    37    1
    42     4    38    1
    43     5    39    1
    44     5    40    1
    45     6    41    1
    46     6    42    1
    47     7    43    1
    48     7    44    1
    49     7    45    1
    50     9    46    1
    51    10    47    1
    52    14    48    1
    53    15    49    1
    54    24    50    1
    55    24    51    1
    56    24    52    1
    57    25    53    1
    58    25    54    1
    59    25    55    1
    60    26    56    1
    61    26    57    1
    62    27    58    1
    63    27    59    1
    64    29    60    1
    65    29    61    1
    66    29    62    1
    67    30    63    1
    68    30    64    1
    69    30    65    1
    70    34    66    1
    71    35    67    1
    72    68     1    1
    73    68    33    1
    74    68    18    1
    75    68    11    1
@<TRIPOS>MOLECULE
*****
 68 75 0 0 0
SMALL
GASTEIGER

@<TRIPOS>ATOM
      1 O           0.0559   -0.4597   -0.8882 O.2     1  UNL1        0.0000
      2 C          -0.3208    0.4398   -1.1396 C.2     1  UNL1        0.0000
      3 N          -1.1806   -2.0510    3.6992 N.am    1  UNL1        0.0000
      4 C          -3.1575   -1.4963    2.5706 C.3     1  UNL1        0.0000
      5 C           0.3344   -1.6811    2.8272 C.3     1  UNL1        0.0000
      6 C           2.3337   -2.9042    2.8725 C.3     1  UNL1        0.0000
      7 C          -1.2871   -5.1945   -0.4511 C.3     1  UNL1        0.0000
      8 C          -0.2547    2.8004   -0.1145 C.ar    1  UNL1        0.0000
      9 C           1.3690    0.4835    1.0044 C.ar    1  UNL1        0.0000
     10 C          -0.2230    0.2762   -3.7830 C.ar    1  UNL1        0.0000
     11 N           0.4608    3.4255   -0.6600 N.ar    1  UNL1        0.0000
     12 C           0.8624    3.2288   -2.7064 C.ar    1  UNL1        0.0000
     13 C          -1.9568    0.3768   -3.1204 C.ar    1  UNL1        0.0000
     14 C          -1.2449   -3.2232   -0.3780 C.ar    1  UNL1        0.0000
     15 C           0.5636   -3.7686    0.3093 C.ar    1  UNL1        0.0000
     16 C           0.2882   -0.9491   -2.5283 C.ar    1  UNL1        0.0000
     17 C           3.1262   -1.7269   -2.1552 C.ar    1  UNL1        0.0000
     18 N           1.9430   -1.1772    1.0353 N.ar    1  UNL1        0.0000
     19 C          -0.9708   -0.3219    0.7652 C.ar    1  UNL1        0.0000
     20 C          -1.4312   -1.1229    1.6574 C.ar    1  UNL1        0.0000
     21 N          -2.7195   -0.0366   -0.4403 N.ar    1  UNL1        0.0000
     22 C          -0.8861   -0.2191   -2.7312 C.ar    1  UNL1        0.0000
     23 C          -1.5057   -3.7091   -2.9930 C.3     1  UNL1        0.0000
     24 C          -1.7618    1.5047    0.3084 C.3     1  UNL1        0.0000
     25 C           0.3534    1.5755   -2.5662 C.3     1  UNL1        0.0000
     26 C          -0.8614    1.0881    0.0244 C.3     1  UNL1        0.0000
     27 C          -3.5876   -0.4944   -0.4790 C.3     1  UNL1        0.0000
     28 C           2.9339    0.4389    2.3558 C.3     1  UNL1        0.0000
     29 C           1.2081    0.7010    2.0620 C.3     1  UNL1        0.0000
     30 C          -2.0769   -2.6926    1.2486 C.3     1  UNL1        0.0000
     31 C          -1.8537    0.5264   -1.8304 C.ar    1  UNL1        0.0000
     32 N          -1.9398    2.8611    0.5527 N.ar    1  UNL1        0.0000
     33 N          -0.6472    1.6839    2.1790 N.ar    1  UNL1        0.0000
     34 C           0.3102    0.0785    0.4332 C.ar    1  UNL1        0.0000
     35 C           0.1724    1.6158   -0.8161 C.ar    1  UNL1        0.0000
     36 H          -1.2605    0.4578    2.1320 H       1  UNL1        0.0000
     37 H          -1.3625   -4.2563    2.0198 H       1  UNL1        0.0000
     38 H          -0.0045    1.0002    3.3467 H       1  UNL1        0.0000
     39 H           0.4450   -3.7011   -1.8166 H       1  UNL1        0.0000
     40 H          -2.6852   -0.9684    2.8750 H       1  UNL1        0.0000
     41 H           3.9558   -1.0358    2.2567 H       1  UNL1        0.0000
     42 H          -2.5105   -1.4148   -1.9888 H       1  UNL1        0.0000
     43 H          -0.4938    1.1028   -3.6262 H       1  UNL1        0.0000
     44 H           2.3069    1.9992   -1.2424 H       1  UNL1        0.0000
     45 H           0.5799   -2.3657   -0.0232 H       1  UNL1        0.0000
     46 H          -0.2342    0.4290    2.8217 H       1  UNL1        0.0000
     47 H           0.8689   -3.0102   -2.6900 H       1  UNL1        0.0000
     48 H           3.8661   -1.4381   -2.4534 H       1  UNL1        0.0000
     49 H          -0.5649    1.7287    5.0936 H       1  UNL1        0.0000
     50 H          -1.2824   -2.4577    0.9031 H       1  UNL1        0.0000
     51 H          -0.8148   -2.2459   -1.2636 H       1  UNL1        0.0000
     52 H          -0.4826    3.1239   -1.7658 H       1  UNL1        0.0000
     53 H           2.0891   -3.3607   -2.2157 H       1  UNL1        0.0000
     54 H          -1.2736    2.9759   -0.4221 H       1  UNL1        0.0000
     55 H           0.8702   -1.9538   -0.0079 H       1  UNL1        0.0000
     56 H           3.0102    1.1812    0.4864 H       1  UNL1        0.0000
     57 H           1.4937   -3.1074   -3.2519 H       1  UNL1        0.0000
     58 H          -1.9200   -2.0570   -3.2158 H       1  UNL1        0.0000
     59 H           0.8939   -0.3466    2.9238 H       1  UNL1        0.0000
     60 H          -2.9547    2.3391   -0.6822 H       1  UNL1        0.0000
     61 H           1.9777    0.0343   -4.3758 H       1  UNL1        0.0000
     62 H           1.5094    2.5568   -4.3952 H       1  UNL1        0.0000
     63 H           0.7101    3.2478    0.7062 H       1  UNL1        0.0000
     64 H           3.2190   -0.9723   -0.1968 H       1  UNL1        0.0000
     65 H          -2.5120   -3.0165    1.4541 H       1  UNL1        0.0000
     66 H          -1.6065    0.9607    2.7790 H       1  UNL1        0.0000
     67 H           3.5964    1.9642    2.1062 H       1  UNL1        0.0000
     68 EU          1.1079    1.4551    0.1145 Eu      1  UNL1        0.0000
@<TRIPOS>BOND
     1     1     2    2
     2     2     3   am
     3     3     4    1
     4     3     5    1
     5     5     6    1
     6     6     7    1
     7     2     8    1
     8     8     9   ar
     9     9    10   ar
    10     8    11   ar
    11    11    12   ar
    12    12    13   ar
    13    10    13   ar
    14    13    14   ar
    15    14    15   ar
    16    15    16   ar
    17    16    17   ar
    18    12    17   ar
    19    17    18   ar
    20    18    19   ar
    21    19    20    1
    22    20    21   ar
    23    21    22   ar
    24    22    23    1
    25    23    24    1
    26    23    25    1
    27    23    26    1
    28    26    27    1
    29    27    28    1
    30    28    29    1
    31    28    30    1
    32    22    31   ar
    33    28    31    1
    34    31    32   ar
    35    32    33   ar
    36    20    33   ar
    37    19    34   ar
    38    34    35   ar
    39    16    35   ar
    40     4    36    1
    41     4    37    1
    42     4    38    1
    43     5    39    1
    44     5    40    1
    45     6    41    1
    46     6    42    1
    47     7    43    1
    48     7    44    1
    49     7    45    1
    50     9    46    1
    51    10    47    1
    52    14    48    1
    53    15    49    1
    54    24    50    1
    55    24    51    1
    56    24    52    1
    57    25    53    1
    58    25    54    1
    59    25    55    1
    60    26    56    1
    61    26    57    1
    62    27    58    1
    63    27    59    1
    64    29    60    1
    65    29    61    1
    66    29    62    1
    67    30    63    1
    68    30    64    1
    69    30    65    1
    70    34    66    1
    71    35    67    1
    72    68     1    1
    73    68    33    1
    74    68    18    1
    75    68    11    1
@<TRIPOS>MOLECULE
*****
 68 75 0 0 0
SMALL
GASTEIGER

@<TRIPOS>ATOM
      1 O          -0.0091   -0.4144   -1.4258 O.2     1  UNL1        0.0000
      2 C          -1.3151    0.0673   -0.9090 C.2     1  UNL1        0.0000
      3 N          -1.3712   -1.7671    3.0144 N.am    1  UNL1        0.0000
      4 C          -3.3809   -1.7738    2.7093 C.3     1  UNL1        0.0000
      5 C           0.2993   -2.1246    2.9205 C.3     1  UNL1        0.0000
      6 C           1.9948   -2.8733    2.5219 C.3     1  UNL1        0.0000
      7 C          -1.3762   -4.8699   -0.7939 C.3     1  UNL1        0.0000
      8 C           0.2120    2.3878    0.4688 C.ar    1  UNL1        0.0000
      9 C           1.5547    1.1289    0.5140 C.ar    1  UNL1        0.0000
     10 C          -0.8031   -0.4330   -4.2246 C.ar    1  UNL1        0.0000
     11 N           0.6608    2.9810   -0.3704 N.ar    1  UNL1        0.0000
     12 C           0.8244    2.6068   -2.0611 C.ar    1  UNL1        0.0000
     13 C          -1.9791    0.1016   -3.5356 C.ar    1  UNL1        0.0000
     14 C          -0.4455   -3.5975    0.2748 C.ar    1  UNL1        0.0000
     15 C          -0.3825   -3.5355    0.3987 C.ar    1  UNL1        0.0000
     16 C           1.4050   -1.5117   -2.0256 C.ar    1  UNL1        0.0000
     17 C           2.8674   -0.8241   -1.7514 C.ar    1  UNL1        0.0000
     18 N           2.2257   -0.6628    0.7276 N.ar    1  UNL1        0.0000
     19 C          -0.1216   -0.8467    0.8982 C.ar    1  UNL1        0.0000
     20 C          -1.3173   -0.8145    1.3369 C.ar    1  UNL1        0.0000
     21 N          -2.2108   -1.2181   -0.0270 N.ar    1  UNL1        0.0000
     22 C          -1.2614   -1.0455   -2.3482 C.ar    1  UNL1        0.0000
     23 C          -1.4032   -3.2418   -2.6503 C.3     1  UNL1        0.0000
     24 C          -1.8813    1.2591    0.3551 C.3     1  UNL1        0.0000
     25 C           0.6514    0.7587   -2.6749 C.3     1  UNL1        0.0000
     26 C          -1.6158    1.3908    0.2788 C.3     1  UNL1        0.0000
     27 C          -3.7710   -0.4266   -0.4337 C.3     1  UNL1        0.0000
     28 C           2.5372    0.3896    2.0850 C.3     1  UNL1        0.0000
     29 C           1.1357    1.0919    2.2536 C.3     1  UNL1        0.0000
     30 C          -2.1539   -2.6228    1.4118 C.3     1  UNL1        0.0000
     31 C          -1.0989    1.7074   -1.8390 C.ar    1  UNL1        0.0000
     32 N          -2.5302    3.2110    0.4635 N.ar    1  UNL1        0.0000
     33 N          -0.8243    2.0373    2.1104 N.ar    1  UNL1        0.0000
     34 C          -0.2195    0.0378    0.7101 C.ar    1  UNL1        0.0000
     35 C           0.3554    1.0524   -0.7420 C.ar    1  UNL1        0.0000
     36 H          -1.4493    0.5553    2.0245 H       1  UNL1        0.0000
     37 H          -1.4215   -4.2098    2.0640 H       1  UNL1        0.0000
     38 H          -0.0926    1.1226    3.6037 H       1  UNL1        0.0000
     39 H           0.4347   -3.6863   -1.5585 H       1  UNL1        0.0000
     40 H          -2.2429   -0.6159    3.0913 H       1  UNL1        0.0000
     41 H           3.9381   -1.1383    2.2734 H       1  UNL1        0.0000
     42 H          -2.6154   -1.6269   -1.6853 H       1  UNL1        0.0000
     43 H          -0.6623    1.1170   -3.6795 H       1  UNL1        0.0000
     44 H           2.2237    1.6376   -1.3027 H       1  UNL1        0.0000
     45 H           0.5041   -2.3973   -0.3959 H       1  UNL1        0.0000
     46 H          -0.1881   -0.1233    2.7064 H       1  UNL1        0.0000
     47 H           0.2079   -3.3191   -3.4503 H       1  UNL1        0.0000
     48 H           4.5940   -2.5002   -1.9656 H       1  UNL1        0.0000
     49 H          -0.5753    1.4864    4.9143 H       1  UNL1        0.0000
     50 H          -0.9910   -2.1134    0.5105 H       1  UNL1        0.0000
     51 H          -0.8602   -2.1672   -1.1727 H       1  UNL1        0.0000
     52 H          -0.6752    3.3259   -1.8114 H       1  UNL1        0.0000
     53 H           2.0983   -3.2347   -2.0778 H       1  UNL1        0.0000
     54 H          -1.2624    2.9980   -0.5780 H       1  UNL1        0.0000
     55 H           1.2244   -1.1853   -0.4209 H       1  UNL1        0.0000
     56 H           3.1481    1.2270    0.4070 H       1  UNL1        0.0000
     57 H           1.6576   -2.8829   -3.4392 H       1  UNL1        0.0000
     58 H          -2.1530   -1.9491   -3.3117 H       1  UNL1        0.0000
     59 H           1.0552   -0.5591    3.0027 H       1  UNL1        0.0000
     60 H          -2.9153    2.2015   -0.7679 H       1  UNL1        0.0000
     61 H           1.9443    0.0749   -4.0827 H       1  UNL1        0.0000
     62 H           1.4959    2.4885   -4.1020 H       1  UNL1        0.0000
     63 H           1.1032    3.4853    1.2105 H       1  UNL1        0.0000
     64 H           3.2858   -1.1408   -0.2051 H       1  UNL1        0.0000
     65 H          -2.5284   -3.0594    1.4508 H       1  UNL1        0.0000
     66 H          -1.8036    1.1701    3.1954 H       1  UNL1        0.0000
     67 H           3.5813    2.1342    1.8104 H       1  UNL1        0.0000
     68 EU          1.6862    2.5809   -0.0545 Eu      1  UNL1        0.0000
@<TRIPOS>BOND
     1     1     2    2
     2     2     3   am
     3     3     4    1
     4     3     5    1
     5     5     6    1
     6     6     7    1
     7     2     8    1
     8     8     9   ar
     9     9    10   ar
    10     8    11   ar
    11    11    12   ar
    12    12    13   ar
    13    10    13   ar
    14    13    14   ar
    15    14    15   ar
    16    15    16   ar
    17    16    17   ar
    18    12    17   ar
    19    17    18   ar
    20    18    19   ar
    21    19    20    1
    22    20    21   ar
    23    21    22   ar
    24    22    23    1
    25    23    24    1
    26    23    25    1
    27    23    26    1
    28    26    27    1
    29    27    28    1
    30    28    29    1
    31    28    30    1
    32    22    31   ar
    33    28    31    1
    34    31    32   ar
    35    32    33   ar
    36    20    33   ar
    37    19    34   ar
    38    34    35   ar
    39    16    35   ar
    40     4    36    1
    41     4    37    1
    42     4    38    1
    43     5    39    1
    44     5    40    1
    45     6    41    1
    46     6    42    1
    47     7    43    1
    48     7    44    1
    49     7    45    1
    50     9    46    1
    51    10    47    1
    52    14    48    1
    53    15    49    1
    54    24    50    1
    55    24    51    1
    56    24    52    1
    57    25    53    1
    58    25    54    1
    59    25    55    1
    60    26    56    1
    61    26    57    1
    62    27    58    1
    63    27    59    1
    64    29    60    1
    65    29    61    1
    66    29    62    1
    67    30    63    1
    68    30    64    1
    69    30    65    1
    70    34    66    1
    71    35    67    1
    72    68     1    1
    73    68    33    1
    74    68    18    1
    75    68    11    1
@<TRIPOS>MOLECULE
*****
 68 75 0 0 0
SMALL
GASTEIGER

@<TRIPOS>ATOM
      1 O          -0.7166   -0.4782   -1.4219 O.2     1  UNL1        0.0000
      2 C          -1.3102   -0.2899   -0.8904 C.2     1  UNL1        0.0000
      3 N          -1.5382   -1.3371    2.9405 N.am    1  UNL1        0.0000
      4 C          -2.9089   -1.6026    2.7794 C.3     1  UNL1        0.0000
      5 C           0.2021   -2.3006    2.6847 C.3     1  UNL1        0.0000
      6 C           1.4374   -2.5669    1.8057 C.3     1  UNL1        0.0000
      7 C          -0.9288   -3.5320   -1.3826 C.3     1  UNL1        0.0000
      8 C           0.5849    2.4763    0.0217 C.ar    1  UNL1        0.0000
      9 C           1.7977    1.4683    0.0733 C.ar    1  UNL1        0.0000
     10 C          -0.3998   -0.7013   -4.0407 C.ar    1  UNL1        0.0000
     11 N           0.9357    3.1540   -0.6046 N.ar    1  UNL1        0.0000
     12 C           0.5773    1.9838   -2.1389 C.ar    1  UNL1        0.0000
     13 C          -1.2290   -0.4534   -3.6412 C.ar    1  UNL1        0.0000
     14 C           0.1427   -3.4903    0.2439 C.ar    1  UNL1        0.0000
     15 C           0.1989   -3.2032    0.5265 C.ar    1  UNL1        0.0000
     16 C           1.8796   -1.2750   -1.5092 C.ar    1  UNL1        0.0000
     17 C           2.8004   -0.5150   -1.4500 C.ar    1  UNL1        0.0000
     18 N           2.6145   -0.2315    0.4798 N.ar    1  UNL1        0.0000
     19 C          -0.1104   -0.6438    0.8986 C.ar    1  UNL1        0.0000
     20 C          -0.9643   -0.5857    1.2448 C.ar    1  UNL1        0.0000
     21 N          -2.5129   -1.8611    0.1068 N.ar    1  UNL1        0.0000
     22 C          -1.8815   -1.6343   -2.2081 C.ar    1  UNL1        0.0000
     23 C          -1.2139   -1.8987   -2.2950 C.3     1  UNL1        0.0000
     24 C          -1.5629    1.1722    0.3168 C.3     1  UNL1        0.0000
     25 C           0.6962   -0.0214   -2.5747 C.3     1  UNL1        0.0000
     26 C          -1.2657    1.2031    0.2787 C.3     1  UNL1        0.0000
     27 C          -3.0694   -0.0523   -0.0464 C.3     1  UNL1        0.0000
     28 C           1.2877    0.2884    1.8670 C.3     1  UNL1        0.0000
     29 C           0.6273    1.2561    1.5741 C.3     1  UNL1        0.0000
     30 C          -1.3201   -2.4499    1.4573 C.3     1  UNL1        0.0000
     31 C          -1.2766    1.5329   -1.6307 C.ar    1  UNL1        0.0000
     32 N          -2.5337    3.1928    0.2253 N.ar    1  UNL1        0.0000
     33 N          -1.1777    2.3621    1.8630 N.ar    1  UNL1        0.0000
     34 C          -0.1452   -0.4169    0.7336 C.ar    1  UNL1        0.0000
     35 C           0.4685    0.5386   -0.6639 C.ar    1  UNL1        0.0000
     36 H          -1.9996    0.5082    2.1240 H       1  UNL1        0.0000
     37 H          -1.6253   -4.0943    2.2860 H       1  UNL1        0.0000
     38 H          -0.3780    0.9645    3.2548 H       1  UNL1        0.0000
     39 H           0.8130   -3.6997   -1.2734 H       1  UNL1        0.0000
     40 H          -1.6016   -0.5898    3.2843 H       1  UNL1        0.0000
     41 H           3.6328   -1.3542    2.2401 H       1  UNL1        0.0000
     42 H          -3.0208   -2.3736   -1.2902 H       1  UNL1        0.0000
     43 H          -0.5953    1.0553   -3.3203 H       1  UNL1        0.0000
     44 H           1.8854    0.8696   -1.5900 H       1  UNL1        0.0000
     45 H           0.6553   -2.2368   -0.8341 H       1  UNL1        0.0000
     46 H          -0.1193   -0.3519    2.7357 H       1  UNL1        0.0000
     47 H          -0.0368   -3.0390   -3.7350 H       1  UNL1        0.0000
     48 H           3.9823   -3.1906   -1.1448 H       1  UNL1        0.0000
     49 H          -0.6145    0.6026    4.6462 H       1  UNL1        0.0000
     50 H          -0.8158   -1.8359   -0.2423 H       1  UNL1        0.0000
     51 H          -0.9060   -1.9629   -0.6046 H       1  UNL1        0.0000
     52 H          -0.8477    3.4523   -1.8910 H       1  UNL1        0.0000
     53 H           2.0645   -2.9637   -2.0504 H       1  UNL1        0.0000
     54 H          -1.0012    2.8740   -0.5526 H       1  UNL1        0.0000
     55 H           1.2006   -0.9166   -0.1309 H       1  UNL1        0.0000
     56 H           3.4152    1.2344    0.1997 H       1  UNL1        0.0000
     57 H           1.1199   -2.0756   -3.0166 H       1  UNL1        0.0000
     58 H          -2.9643   -1.8458   -3.4794 H       1  UNL1        0.0000
     59 H           1.2324   -0.6444    2.5818 H       1  UNL1        0.0000
     60 H          -2.7618    1.9362   -0.8075 H       1  UNL1        0.0000
     61 H           2.1816    0.2629   -3.3562 H       1  UNL1        0.0000
     62 H           1.6100    2.3321   -3.3790 H       1  UNL1        0.0000
     63 H           0.8622    2.9305    1.7511 H       1  UNL1        0.0000
     64 H           2.8887   -1.8908   -0.0204 H       1  UNL1        0.0000
     65 H          -2.5764   -3.0958    1.4214 H       1  UNL1        0.0000
     66 H          -1.8267    1.2477    3.3913 H       1  UNL1        0.0000
     67 H           3.1509    2.2190    1.3263 H       1  UNL1        0.0000
     68 EU          1.7928    3.0528   -0.2181 Eu      1  UNL1        0.0000
@<TRIPOS>BOND
     1     1     2    2
     2     2     3   am
     3     3     4    1
     4     3     5    1
     5     5     6    1
     6     6     7    1
     7     2     8    1
     8     8     9   ar
     9     9    10   ar
    10     8    11   ar
    11    11    12   ar
    12    12    13   ar
    13    10    13   ar
    14    13    14   ar
    15    14    15   ar
    16    15    16   ar
    17    16    17   ar
    18    12    17   ar
    19    17    18   ar
    20    18    19   ar
    21    19    20    1
    22    20    21   ar
    23    21    22   ar
    24    22    23    1
    25    23    24    1
    26    23    25    1
    27    23    26    1
    28    26    27    1
    29    27    28    1
    30    28    29    1
    31    28    30    1
    32    22    31   ar
    33    28    31    1
    34    31    32   ar
    35    32    33   ar
    36    20    33   ar
    37    19    34   ar
    38    34    35   ar
    39    16    35   ar
    40     4    36    1
    41     4    37    1
    42     4    38    1
    43     5    39    1
    44     5    40    1
    45     6    41    1
    46     6    42    1
    47     7    43    1
    48     7    44    1
    49     7    45    1
    50     9    46    1
    51    10    47    1
    52    14    48    1
    53    15    49    1
    54    24    50    1
    55    24    51    1
    56    24    52    1
    57    25    53    1
    58    25    54    1
    59    25    55    1
    60    26    56    1
    61    26    57    1
    62    27    58    1
    63    27    59    1
    64    29    60    1
    65    29    61    1
    66    29    62    1
    67    30    63    1
    68    30    64    1
    69    30    65    1
    70    34    66    1
    71    35    67    1
    72    68     1    1
    73    68    33    1
    74    68    18    1
    75    68    11    1
@<TRIPOS>MOLECULE
*****
 68 75 0 0 0
SMALL
GASTEIGER

@<TRIPOS>ATOM
      1 O          -0.9394   -0.3122   -1.3444 O.2     1  UNL1        0.0000
      2 C          -1.3041   -0.1908   -0.9541 C.2     1  UNL1        0.0000
      3 N          -1.6371   -1.2314    2.8320 N.am    1  UNL1        0.0000
      4 C          -2.7815   -1.5189    2.7386 C.3     1  UNL1        0.0000
      5 C           0.3306   -2.3239    2.7297 C.3     1  UNL1        0.0000
      6 C           1.3715   -2.3509    1.7624 C.3     1  UNL1        0.0000
      7 C          -0.5742   -3.2707   -1.5470 C.3     1  UNL1        0.0000
      8 C           0.6592    2.6001   -0.1121 C.ar    1  UNL1        0.0000
      9 C           1.9043    1.5645   -0.1059 C.ar    1  UNL1        0.0000
     10 C          -0.2556   -0.7134   -4.0047 C.ar    1  UNL1        0.0000
     11 N           0.9887    3.2163   -0.7217 N.ar    1  UNL1        0.0000
     12 C           0.6024    1.8697   -2.1674 C.ar    1  UNL1        0.0000
     13 C          -0.9527   -0.5379   -3.6561 C.ar    1  UNL1        0.0000
     14 C           0.3477   -3.4484    0.1671 C.ar    1  UNL1        0.0000
     15 C           0.3949   -3.2414    0.4027 C.ar    1  UNL1        0.0000
     16 C           2.0393   -1.2681   -1.3071 C.ar    1  UNL1        0.0000
     17 C           2.8603   -0.5118   -1.2512 C.ar    1  UNL1        0.0000
     18 N           2.5686   -0.2043    0.4318 N.ar    1  UNL1        0.0000
     19 C          -0.2113   -0.6823    0.8557 C.ar    1  UNL1        0.0000
     20 C          -0.9177   -0.5263    1.2589 C.ar    1  UNL1        0.0000
     21 N          -2.5377   -1.8521    0.1560 N.ar    1  UNL1        0.0000
     22 C          -2.1258   -1.5500   -2.1249 C.ar    1  UNL1        0.0000
     23 C          -1.4690   -1.7581   -2.2442 C.3     1  UNL1        0.0000
     24 C          -1.3593    1.2366    0.2919 C.3     1  UNL1        0.0000
     25 C           0.6730   -0.2183   -2.3901 C.3     1  UNL1        0.0000
     26 C          -1.0907    1.2488    0.2407 C.3     1  UNL1        0.0000
     27 C          -2.9106   -0.0028    0.1926 C.3     1  UNL1        0.0000
     28 C           1.1658    0.4404    1.6914 C.3     1  UNL1        0.0000
     29 C           0.6349    1.1886    1.2971 C.3     1  UNL1        0.0000
     30 C          -1.1264   -2.4551    1.4271 C.3     1  UNL1        0.0000
     31 C          -1.3603    1.6219   -1.6669 C.ar    1  UNL1        0.0000
     32 N          -2.5726    3.2064    0.1092 N.ar    1  UNL1        0.0000
     33 N          -1.2106    2.4824    1.7678 N.ar    1  UNL1        0.0000
     34 C          -0.2404   -0.5694    0.7492 C.ar    1  UNL1        0.0000
     35 C           0.6234    0.3146   -0.5406 C.ar    1  UNL1        0.0000
     36 H          -2.2289    0.3768    2.1111 H       1  UNL1        0.0000
     37 H          -1.7009   -4.0047    2.3975 H       1  UNL1        0.0000
     38 H          -0.4299    1.0110    3.1308 H       1  UNL1        0.0000
     39 H           1.0946   -3.7937   -1.2676 H       1  UNL1        0.0000
     40 H          -1.4038   -0.6540    3.3666 H       1  UNL1        0.0000
     41 H           3.4774   -1.4315    2.2071 H       1  UNL1        0.0000
     42 H          -2.9100   -2.7494   -1.1335 H       1  UNL1        0.0000
     43 H          -0.5769    1.0118   -3.2020 H       1  UNL1        0.0000
     44 H           1.8651    0.7726   -1.6861 H       1  UNL1        0.0000
     45 H           0.5441   -2.2022   -1.1085 H       1  UNL1        0.0000
     46 H          -0.0033   -0.3645    2.7937 H       1  UNL1        0.0000
     47 H          -0.0720   -2.8902   -3.7826 H       1  UNL1        0.0000
     48 H           3.6509   -3.3037   -0.9363 H       1  UNL1        0.0000
     49 H          -0.5215    0.1200    4.3825 H       1  UNL1        0.0000
     50 H          -0.8744   -1.8415   -0.3644 H       1  UNL1        0.0000
     51 H          -0.9049   -1.8452   -0.4570 H       1  UNL1        0.0000
     52 H          -0.8849    3.4194   -1.9223 H       1  UNL1        0.0000
     53 H           2.0395   -2.8626   -2.1614 H       1  UNL1        0.0000
     54 H          -0.9611    2.8644   -0.5598 H       1  UNL1        0.0000
     55 H           1.2341   -1.1758    0.0772 H       1  UNL1        0.0000
     56 H           3.5074    1.2201    0.1489 H       1  UNL1        0.0000
     57 H           0.8804   -1.8534   -2.7790 H       1  UNL1        0.0000
     58 H          -3.1958   -1.7157   -3.4151 H       1  UNL1        0.0000
     59 H           1.2720   -0.5937    2.2679 H       1  UNL1        0.0000
     60 H          -2.7917    1.7728   -0.7160 H       1  UNL1        0.0000
     61 H           2.2233    0.3953   -3.0603 H       1  UNL1        0.0000
     62 H           1.8062    2.3301   -3.2052 H       1  UNL1        0.0000
     63 H           0.7058    2.7385    1.8842 H       1  UNL1        0.0000
     64 H           2.5785   -2.0922    0.1994 H       1  UNL1        0.0000
     65 H          -2.5732   -3.1068    1.4294 H       1  UNL1        0.0000
     66 H          -1.8686    1.2483    3.2972 H       1  UNL1        0.0000
     67 H           2.9174    2.1560    1.2764 H       1  UNL1        0.0000
     68 EU          1.7057    3.1349   -0.3866 Eu      1  UNL1        0.0000
@<TRIPOS>BOND
     1     1     2    2
     2     2     3   am
     3     3     4    1
     4     3     5    1
     5     5     6    1
     6     6     7    1
     7     2     8    1
     8     8     9   ar
     9     9    10   ar
    10     8    11   ar
    11    11    12   ar
    12    12    13   ar
    13    10    13   ar
    14    13    14   ar
    15    14    15   ar
    16    15    16   ar
    17    16    17   ar
    18    12    17   ar
    19    17    18   ar
    20    18    19   ar
    21    19    20    1
    22    20    21   ar
    23    21    22   ar
    24    22    23    1
    25    23    24    1
    26    23    25    1
    27    23    26    1
    28    26    27    1
    29    27    28    1
    30    28    29    1
    31    28    30    1
    32    22    31   ar
    33    28    31    1
    34    31    32   ar
    35    32    33   ar
    36    20    33   ar
    37    19    34   ar
    38    34    35   ar
    39    16    35   ar
    40     4    36    1
    41     4    37    1
    42     4    38    1
    43     5    39    1
    44     5    40    1
    45     6    41    1
    46     6    42    1
    47     7    43    1
    48     7    44    1
    49     7    45    1
    50     9    46    1
    51    10    47    1
    52    14    48    1
    53    15    49    1
    54    24    50    1
    55    24    51    1
    56    24    52    1
    57    25    53    1
    58    25    54    1
    59    25    55    1
    60    26    56    1
    61    26    57    1
    62    27    58    1
    63    27    59    1
    64    29    60    1
    65    29    61    1
    66    29    62    1
    67    30    63    1
    68    30    64    1
    69    30    65    1
    70    34    66    1
    71    35    67    1
    72    68     1    1
    73    68    33    1
    74    68    18    1
    75    68    11    1
@<TRIPOS>MOLECULE
*****
 68 75 0 0 0
SMALL
GASTEIGER

@<TRIPOS>ATOM
      1 O          -0.9623   -0.2730   -1.3344 O.2     1  UNL1        0.0000
      2 C          -1.2933   -0.1556   -0.9715 C.2     1  UNL1        0.0000
      3 N          -1.6615   -1.2171    2.8018 N.am    1  UNL1        0.0000
      4 C          -2.7573   -1.4929    2.7168 C.3     1  UNL1        0.0000
      5 C           0.3730   -2.3263    2.7381 C.3     1  UNL1        0.0000
      6 C           1.3309   -2.3025    1.7745 C.3     1  UNL1        0.0000
      7 C          -0.3792   -3.0855   -1.6615 C.3     1  UNL1        0.0000
      8 C           0.6771    2.6239   -0.1653 C.ar    1  UNL1        0.0000
      9 C           1.9279    1.5885   -0.1781 C.ar    1  UNL1        0.0000
     10 C          -0.2088   -0.7370   -3.9815 C.ar    1  UNL1        0.0000
     11 N           0.9918    3.2113   -0.7760 N.ar    1  UNL1        0.0000
     12 C           0.6072    1.8288   -2.1810 C.ar    1  UNL1        0.0000
     13 C          -0.8673   -0.5877   -3.6486 C.ar    1  UNL1        0.0000
     14 C           0.4083   -3.4320    0.1229 C.ar    1  UNL1        0.0000
     15 C           0.4595   -3.2377    0.3651 C.ar    1  UNL1        0.0000
     16 C           2.0594   -1.2627   -1.2211 C.ar    1  UNL1        0.0000
     17 C           2.8601   -0.5008   -1.1661 C.ar    1  UNL1        0.0000
     18 N           2.5350   -0.1976    0.3942 N.ar    1  UNL1        0.0000
     19 C          -0.2237   -0.6893    0.8381 C.ar    1  UNL1        0.0000
     20 C          -0.9005   -0.4990    1.2763 C.ar    1  UNL1        0.0000
     21 N          -2.5528   -1.8314    0.1665 N.ar    1  UNL1        0.0000
     22 C          -2.2365   -1.4949   -2.0738 C.ar    1  UNL1        0.0000
     23 C          -1.6299   -1.7088   -2.1993 C.3     1  UNL1        0.0000
     24 C          -1.2803    1.2635    0.2748 C.3     1  UNL1        0.0000
     25 C           0.6670   -0.2402   -2.3340 C.3     1  UNL1        0.0000
     26 C          -1.0215    1.2695    0.2201 C.3     1  UNL1        0.0000
     27 C          -2.8458    0.0282    0.2748 C.3     1  UNL1        0.0000
     28 C           1.1159    0.5200    1.6306 C.3     1  UNL1        0.0000
     29 C           0.6994    1.1829    1.2443 C.3     1  UNL1        0.0000
     30 C          -1.0751   -2.4609    1.4186 C.3     1  UNL1        0.0000
     31 C          -1.4093    1.6660   -1.6762 C.ar    1  UNL1        0.0000
     32 N          -2.6008    3.2119    0.0604 N.ar    1  UNL1        0.0000
     33 N          -1.2245    2.5307    1.7190 N.ar    1  UNL1        0.0000
     34 C          -0.2594   -0.5910    0.7564 C.ar    1  UNL1        0.0000
     35 C           0.6843    0.2137   -0.4829 C.ar    1  UNL1        0.0000
     36 H          -2.3090    0.3183    2.1142 H       1  UNL1        0.0000
     37 H          -1.7263   -3.9630    2.4465 H       1  UNL1        0.0000
     38 H          -0.4506    1.0069    3.0974 H       1  UNL1        0.0000
     39 H           1.2142   -3.8394   -1.2590 H       1  UNL1        0.0000
     40 H          -1.3572   -0.7110    3.3629 H       1  UNL1        0.0000
     41 H           3.4141   -1.4582    2.1935 H       1  UNL1        0.0000
     42 H          -2.7845   -2.8799   -1.0642 H       1  UNL1        0.0000
     43 H          -0.5870    0.9822   -3.1689 H       1  UNL1        0.0000
     44 H           1.8646    0.7518   -1.6735 H       1  UNL1        0.0000
     45 H           0.5089   -2.2005   -1.1957 H       1  UNL1        0.0000
     46 H           0.0621   -0.3677    2.8074 H       1  UNL1        0.0000
     47 H          -0.0813   -2.8304   -3.8022 H       1  UNL1        0.0000
     48 H           3.5235   -3.3388   -0.8691 H       1  UNL1        0.0000
     49 H          -0.4383   -0.0340    4.2926 H       1  UNL1        0.0000
     50 H          -0.8978   -1.8294   -0.3986 H       1  UNL1        0.0000
     51 H          -0.9152   -1.8227   -0.4440 H       1  UNL1        0.0000
     52 H          -0.8910    3.4174   -1.9365 H       1  UNL1        0.0000
     53 H           2.0273   -2.8094   -2.2090 H       1  UNL1        0.0000
     54 H          -0.9549    2.8882   -0.5596 H       1  UNL1        0.0000
     55 H           1.2144   -1.3099    0.1527 H       1  UNL1        0.0000
     56 H           3.5233    1.2142    0.1504 H       1  UNL1        0.0000
     57 H           0.8102   -1.8555   -2.7094 H       1  UNL1        0.0000
     58 H          -3.2850   -1.6583   -3.3838 H       1  UNL1        0.0000
     59 H           1.2797   -0.5392    2.1317 H       1  UNL1        0.0000
     60 H          -2.8011    1.7042   -0.6556 H       1  UNL1        0.0000
     61 H           2.2347    0.4209   -3.0152 H       1  UNL1        0.0000
     62 H           1.8917    2.3329   -3.1162 H       1  UNL1        0.0000
     63 H           0.6390    2.6760    1.9499 H       1  UNL1        0.0000
     64 H           2.4901   -2.1735    0.2850 H       1  UNL1        0.0000
     65 H          -2.5689   -3.1074    1.4268 H       1  UNL1        0.0000
     66 H          -1.8918    1.2432    3.2390 H       1  UNL1        0.0000
     67 H           2.8409    2.1201    1.2737 H       1  UNL1        0.0000
     68 EU          1.6389    3.1423   -0.4854 Eu      1  UNL1        0.0000
@<TRIPOS>BOND
     1     1     2    2
     2     2     3   am
     3     3     4    1
     4     3     5    1
     5     5     6    1
     6     6     7    1
     7     2     8    1
     8     8     9   ar
     9     9    10   ar
    10     8    11   ar
    11    11    12   ar
    12    12    13   ar
    13    10    13   ar
    14    13    14   ar
    15    14    15   ar
    16    15    16   ar
    17    16    17   ar
    18    12    17   ar
    19    17    18   ar
    20    18    19   ar
    21    19    20    1
    22    20    21   ar
    23    21    22   ar
    24    22    23    1
    25    23    24    1
    26    23    25    1
    27    23    26    1
    28    26    27    1
    29    27    28    1
    30    28    29    1
    31    28    30    1
    32    22    31   ar
    33    28    31    1
    34    31    32   ar
    35    32    33   ar
    36    20    33   ar
    37    19    34   ar
    38    34    35   ar
    39    16    35   ar
    40     4    36    1
    41     4    37    1
    42     4    38    1
    43     5    39    1
    44     5    40    1
    45     6    41    1
    46     6    42    1
    47     7    43    1
    48     7    44    1
    49     7    45    1
    50     9    46    1
    51    10    47    1
    52    14    48    1
    53    15    49    1
    54    24    50    1
    55    24    51    1
    56    24    52    1
    57    25    53    1
    58    25    54    1
    59    25    55    1
    60    26    56    1
    61    26    57    1
    62    27    58    1
    63    27    59    1
    64    29    60    1
    65    29    61    1
    66    29    62    1
    67    30    63    1
    68    30    64    1
    69    30    65    1
    70    34    66    1
    71    35    67    1
    72    68     1    1
    73    68    33    1
    74    68    18    1
    75    68    11    1
@<TRIPOS>MOLECULE
*****
 68 75 0 0 0
SMALL
GASTEIGER

@<TRIPOS>ATOM
      1 O          -0.9660   -0.2536   -1.3377 O.2     1  UNL1        0.0000
      2 C          -1.2831   -0.1370   -0.9844 C.2     1  UNL1        0.0000
      3 N          -1.6751   -1.2141    2.7846 N.am    1  UNL1        0.0000
      4 C          -2.7523   -1.4794    2.7005 C.3     1  UNL1        0.0000
      5 C           0.3979   -2.3281    2.7399 C.3     1  UNL1        0.0000
      6 C           1.2969   -2.2850    1.7975 C.3     1  UNL1        0.0000
      7 C          -0.2492   -2.9332   -1.7299 C.3     1  UNL1        0.0000
      8 C           0.6875    2.6330   -0.2015 C.ar    1  UNL1        0.0000
      9 C           1.9408    1.6005   -0.2245 C.ar    1  UNL1        0.0000
     10 C          -0.1773   -0.7628   -3.9654 C.ar    1  UNL1        0.0000
     11 N           0.9894    3.2035   -0.8145 N.ar    1  UNL1        0.0000
     12 C           0.6067    1.8021   -2.1886 C.ar    1  UNL1        0.0000
     13 C          -0.8232   -0.6258   -3.6361 C.ar    1  UNL1        0.0000
     14 C           0.4372   -3.4231    0.0871 C.ar    1  UNL1        0.0000
     15 C           0.4937   -3.2307    0.3441 C.ar    1  UNL1        0.0000
     16 C           2.0674   -1.2628   -1.1639 C.ar    1  UNL1        0.0000
     17 C           2.8568   -0.4983   -1.1091 C.ar    1  UNL1        0.0000
     18 N           2.5216   -0.1899    0.3882 N.ar    1  UNL1        0.0000
     19 C          -0.2344   -0.6838    0.8432 C.ar    1  UNL1        0.0000
     20 C          -0.8888   -0.4767    1.2877 C.ar    1  UNL1        0.0000
     21 N          -2.5679   -1.8161    0.1701 N.ar    1  UNL1        0.0000
     22 C          -2.3181   -1.4588   -2.0273 C.ar    1  UNL1        0.0000
     23 C          -1.7229   -1.6844   -2.1655 C.3     1  UNL1        0.0000
     24 C          -1.2246    1.2789    0.2600 C.3     1  UNL1        0.0000
     25 C           0.6693   -0.2504   -2.3058 C.3     1  UNL1        0.0000
     26 C          -0.9700    1.2822    0.2031 C.3     1  UNL1        0.0000
     27 C          -2.8015    0.0493    0.3185 C.3     1  UNL1        0.0000
     28 C           1.0820    0.5789    1.5988 C.3     1  UNL1        0.0000
     29 C           0.7497    1.1880    1.2187 C.3     1  UNL1        0.0000
     30 C          -1.0486   -2.4628    1.4125 C.3     1  UNL1        0.0000
     31 C          -1.4481    1.6935   -1.6785 C.ar    1  UNL1        0.0000
     32 N          -2.6234    3.2141    0.0269 N.ar    1  UNL1        0.0000
     33 N          -1.2379    2.5623    1.6808 N.ar    1  UNL1        0.0000
     34 C          -0.2691   -0.6004    0.7637 C.ar    1  UNL1        0.0000
     35 C           0.7211    0.1503   -0.4512 C.ar    1  UNL1        0.0000
     36 H          -2.3592    0.2743    2.1222 H       1  UNL1        0.0000
     37 H          -1.7429   -3.9325    2.4807 H       1  UNL1        0.0000
     38 H          -0.4659    0.9934    3.0805 H       1  UNL1        0.0000
     39 H           1.2901   -3.8695   -1.2525 H       1  UNL1        0.0000
     40 H          -1.3283   -0.7560    3.3487 H       1  UNL1        0.0000
     41 H           3.3704   -1.4757    2.1849 H       1  UNL1        0.0000
     42 H          -2.6806   -2.9588   -1.0116 H       1  UNL1        0.0000
     43 H          -0.6010    0.9590   -3.1510 H       1  UNL1        0.0000
     44 H           1.8671    0.7372   -1.6689 H       1  UNL1        0.0000
     45 H           0.4893   -2.1980   -1.2332 H       1  UNL1        0.0000
     46 H           0.1128   -0.3705    2.8066 H       1  UNL1        0.0000
     47 H          -0.0868   -2.7916   -3.8184 H       1  UNL1        0.0000
     48 H           3.4382   -3.3596   -0.8313 H       1  UNL1        0.0000
     49 H          -0.3685   -0.1235    4.2501 H       1  UNL1        0.0000
     50 H          -0.9145   -1.8187   -0.4149 H       1  UNL1        0.0000
     51 H          -0.9265   -1.8114   -0.4427 H       1  UNL1        0.0000
     52 H          -0.8914    3.4189   -1.9468 H       1  UNL1        0.0000
     53 H           2.0196   -2.7717   -2.2375 H       1  UNL1        0.0000
     54 H          -0.9528    2.9080   -0.5601 H       1  UNL1        0.0000
     55 H           1.1932   -1.3881    0.1927 H       1  UNL1        0.0000
     56 H           3.5277    1.2122    0.1563 H       1  UNL1        0.0000
     57 H           0.7811   -1.8535   -2.6917 H       1  UNL1        0.0000
     58 H          -3.3427   -1.6176   -3.3611 H       1  UNL1        0.0000
     59 H           1.2844   -0.4980    2.0384 H       1  UNL1        0.0000
     60 H          -2.8026    1.6613   -0.6090 H       1  UNL1        0.0000
     61 H           2.2448    0.4328   -3.0016 H       1  UNL1        0.0000
     62 H           1.9480    2.3341   -3.0442 H       1  UNL1        0.0000
     63 H           0.5891    2.6330    2.0016 H       1  UNL1        0.0000
     64 H           2.4489   -2.2317    0.3343 H       1  UNL1        0.0000
     65 H          -2.5645   -3.1069    1.4225 H       1  UNL1        0.0000
     66 H          -1.9074    1.2378    3.1944 H       1  UNL1        0.0000
     67 H           2.7917    2.0920    1.2756 H       1  UNL1        0.0000
     68 EU          1.5931    3.1424   -0.5543 Eu      1  UNL1        0.0000
@<TRIPOS>BOND
     1     1     2    2
     2     2     3   am
     3     3     4    1
     4     3     5    1
     5     5     6    1
     6     6     7    1
     7     2     8    1
     8     8     9   ar
     9     9    10   ar
    10     8    11   ar
    11    11    12   ar
    12    12    13   ar
    13    10    13   ar
    14    13    14   ar
    15    14    15   ar
    16    15    16   ar
    17    16    17   ar
    18    12    17   ar
    19    17    18   ar
    20    18    19   ar
    21    19    20    1
    22    20    21   ar
    23    21    22   ar
    24    22    23    1
    25    23    24    1
    26    23    25    1
    27    23    26    1
    28    26    27    1
    29    27    28    1
    30    28    29    1
    31    28    30    1
    32    22    31   ar
    33    28    31    1
    34    31    32   ar
    35    32    33   ar
    36    20    33   ar
    37    19    34   ar
    38    34    35   ar
    39    16    35   ar
    40     4    36    1
    41     4    37    1
    42     4    38    1
    43     5    39    1
    44     5    40    1
    45     6    41    1
    46     6    42    1
    47     7    43    1
    48     7    44    1
    49     7    45    1
    50     9    46    1
    51    10    47    1
    52    14    48    1
    53    15    49    1
    54    24    50    1
    55    24    51    1
    56    24    52    1
    57    25    53    1
    58    25    54    1
    59    25    55    1
    60    26    56    1
    61    26    57    1
    62    27    58    1
    63    27    59    1
    64    29    60    1
    65    29    61    1
    66    29    62    1
    67    30    63    1
    68    30    64    1
    69    30    65    1
    70    34    66    1
    71    35    67    1
    72    68     1    1
    73    68    33    1
    74    68    18    1
    75    68    11    1
@<TRIPOS>MOLECULE
*****
 68 75 0 0 0
SMALL
GASTEIGER

@<TRIPOS>ATOM
      1 O          -0.9751   -0.2058   -1.3791 O.2     1  UNL1        0.0000
      2 C          -1.2568   -0.0935   -1.0439 C.2     1  UNL1        0.0000
      3 N          -1.7109   -1.2199    2.7317 N.am    1  UNL1        0.0000
      4 C          -2.7547   -1.4399    2.6638 C.3     1  UNL1        0.0000
      5 C           0.4548   -2.3449    2.7310 C.3     1  UNL1        0.0000
      6 C           1.1806   -2.2686    1.8927 C.3     1  UNL1        0.0000
      7 C          -0.0459   -2.5570   -1.7616 C.3     1  UNL1        0.0000
      8 C           0.7183    2.6627   -0.3286 C.ar    1  UNL1        0.0000
      9 C           1.9906    1.6318   -0.3726 C.ar    1  UNL1        0.0000
     10 C          -0.1060   -0.8420   -3.9384 C.ar    1  UNL1        0.0000
     11 N           0.9807    3.1693   -0.9396 N.ar    1  UNL1        0.0000
     12 C           0.5961    1.7318   -2.2080 C.ar    1  UNL1        0.0000
     13 C          -0.7445   -0.7302   -3.5967 C.ar    1  UNL1        0.0000
     14 C           0.4921   -3.4266   -0.0153 C.ar    1  UNL1        0.0000
     15 C           0.5679   -3.2321    0.3122 C.ar    1  UNL1        0.0000
     16 C           2.1016   -1.2665   -1.0152 C.ar    1  UNL1        0.0000
     17 C           2.8482   -0.5046   -0.9534 C.ar    1  UNL1        0.0000
     18 N           2.4976   -0.1565    0.4080 N.ar    1  UNL1        0.0000
     19 C          -0.1674   -0.6862    0.8062 C.ar    1  UNL1        0.0000
     20 C          -0.8635   -0.4110    1.3173 C.ar    1  UNL1        0.0000
     21 N          -2.6476   -1.7810    0.1671 N.ar    1  UNL1        0.0000
     22 C          -2.5840   -1.3490   -1.8272 C.ar    1  UNL1        0.0000
     23 C          -1.8990   -1.6486   -2.0664 C.3     1  UNL1        0.0000
     24 C          -1.0416    1.3052    0.1965 C.3     1  UNL1        0.0000
     25 C           0.6694   -0.2740   -2.2431 C.3     1  UNL1        0.0000
     26 C          -0.7967    1.3056    0.1271 C.3     1  UNL1        0.0000
     27 C          -2.6595    0.0939    0.4097 C.3     1  UNL1        0.0000
     28 C           0.9453    0.8049    1.5272 C.3     1  UNL1        0.0000
     29 C           0.9121    1.2598    1.1472 C.3     1  UNL1        0.0000
     30 C          -0.9951   -2.4397    1.3833 C.3     1  UNL1        0.0000
     31 C          -1.5965    1.7717   -1.6615 C.ar    1  UNL1        0.0000
     32 N          -2.7027    3.2232   -0.0884 N.ar    1  UNL1        0.0000
     33 N          -1.3038    2.6404    1.5328 N.ar    1  UNL1        0.0000
     34 C          -0.2047   -0.5908    0.6966 C.ar    1  UNL1        0.0000
     35 C           0.7985    0.0057   -0.3821 C.ar    1  UNL1        0.0000
     36 H          -2.5024    0.1132    2.1990 H       1  UNL1        0.0000
     37 H          -1.7958   -3.8224    2.5884 H       1  UNL1        0.0000
     38 H          -0.5169    0.8973    3.0556 H       1  UNL1        0.0000
     39 H           1.5025   -3.9332   -1.2226 H       1  UNL1        0.0000
     40 H          -1.2200   -0.9004    3.2917 H       1  UNL1        0.0000
     41 H           3.2274   -1.5299    2.1626 H       1  UNL1        0.0000
     42 H          -2.2973   -3.1391   -0.8116 H       1  UNL1        0.0000
     43 H          -0.6706    0.8823   -3.0937 H       1  UNL1        0.0000
     44 H           1.8954    0.6697   -1.6861 H       1  UNL1        0.0000
     45 H           0.4524   -2.1624   -1.3323 H       1  UNL1        0.0000
     46 H           0.2976   -0.3667    2.7497 H       1  UNL1        0.0000
     47 H          -0.1007   -2.6809   -3.8738 H       1  UNL1        0.0000
     48 H           3.1801   -3.4187   -0.7509 H       1  UNL1        0.0000
     49 H          -0.1520   -0.4005    4.1654 H       1  UNL1        0.0000
     50 H          -0.9893   -1.7804   -0.4381 H       1  UNL1        0.0000
     51 H          -0.9925   -1.7772   -0.4431 H       1  UNL1        0.0000
     52 H          -0.8745    3.4220   -1.9785 H       1  UNL1        0.0000
     53 H           2.0163   -2.6670   -2.2971 H       1  UNL1        0.0000
     54 H          -0.9532    2.9670   -0.5614 H       1  UNL1        0.0000
     55 H           1.1668   -1.5918    0.2512 H       1  UNL1        0.0000
     56 H           3.5294    1.2162    0.1924 H       1  UNL1        0.0000
     57 H           0.9250   -1.7686   -2.8416 H       1  UNL1        0.0000
     58 H          -3.4900   -1.4783   -3.2722 H       1  UNL1        0.0000
     59 H           1.3303   -0.4077    1.7865 H       1  UNL1        0.0000
     60 H          -2.7841    1.5797   -0.4490 H       1  UNL1        0.0000
     61 H           2.2874    0.4622   -3.0112 H       1  UNL1        0.0000
     62 H           2.1060    2.3306   -2.7626 H       1  UNL1        0.0000
     63 H           0.3965    2.4491    2.1962 H       1  UNL1        0.0000
     64 H           2.3876   -2.4219    0.4723 H       1  UNL1        0.0000
     65 H          -2.5406   -3.1040    1.3988 H       1  UNL1        0.0000
     66 H          -1.9421    1.2447    3.0372 H       1  UNL1        0.0000
     67 H           2.6537    1.9942    1.2860 H       1  UNL1        0.0000
     68 EU          1.4523    3.1264   -0.7611 Eu      1  UNL1        0.0000
@<TRIPOS>BOND
     1     1     2    2
     2     2     3   am
     3     3     4    1
     4     3     5    1
     5     5     6    1
     6     6     7    1
     7     2     8    1
     8     8     9   ar
     9     9    10   ar
    10     8    11   ar
    11    11    12   ar
    12    12    13   ar
    13    10    13   ar
    14    13    14   ar
    15    14    15   ar
    16    15    16   ar
    17    16    17   ar
    18    12    17   ar
    19    17    18   ar
    20    18    19   ar
    21    19    20    1
    22    20    21   ar
    23    21    22   ar
    24    22    23    1
    25    23    24    1
    26    23    25    1
    27    23    26    1
    28    26    27    1
    29    27    28    1
    30    28    29    1
    31    28    30    1
    32    22    31   ar
    33    28    31    1
    34    31    32   ar
    35    32    33   ar
    36    20    33   ar
    37    19    34   ar
    38    34    35   ar
    39    16    35   ar
    40     4    36    1
    41     4    37    1
    42     4    38    1
    43     5    39    1
    44     5    40    1
    45     6    41    1
    46     6    42    1
    47     7    43    1
    48     7    44    1
    49     7    45    1
    50     9    46    1
    51    10    47    1
    52    14    48    1
    53    15    49    1
    54    24    50    1
    55    24    51    1
    56    24    52    1
    57    25    53    1
    58    25    54    1
    59    25    55    1
    60    26    56    1
    61    26    57    1
    62    27    58    1
    63    27    59    1
    64    29    60    1
    65    29    61    1
    66    29    62    1
    67    30    63    1
    68    30    64    1
    69    30    65    1
    70    34    66    1
    71    35    67    1
    72    68     1    1
    73    68    33    1
    74    68    18    1
    75    68    11    1
@<TRIPOS>MOLECULE
*****
 68 75 0 0 0
SMALL
GASTEIGER

@<TRIPOS>ATOM
      1 O          -0.9901   -0.1863   -1.4017 O.2     1  UNL1        0.0000
      2 C          -1.2537   -0.0782   -1.0735 C.2     1  UNL1        0.0000
      3 N          -1.7236   -1.2266    2.7074 N.am    1  UNL1        0.0000
      4 C          -2.7556   -1.4237    2.6630 C.3     1  UNL1        0.0000
      5 C           0.4682   -2.3586    2.7198 C.3     1  UNL1        0.0000
      6 C           1.1375   -2.2659    1.9198 C.3     1  UNL1        0.0000
      7 C           0.0194   -2.3911   -1.7525 C.3     1  UNL1        0.0000
      8 C           0.7336    2.6854   -0.3967 C.ar    1  UNL1        0.0000
      9 C           2.0212    1.6436   -0.4430 C.ar    1  UNL1        0.0000
     10 C          -0.0926   -0.8671   -3.9365 C.ar    1  UNL1        0.0000
     11 N           0.9839    3.1546   -0.9980 N.ar    1  UNL1        0.0000
     12 C           0.5930    1.7023   -2.2197 C.ar    1  UNL1        0.0000
     13 C          -0.7271   -0.7629   -3.5864 C.ar    1  UNL1        0.0000
     14 C           0.4921   -3.4453   -0.0656 C.ar    1  UNL1        0.0000
     15 C           0.5787   -3.2467    0.3090 C.ar    1  UNL1        0.0000
     16 C           2.1196   -1.2702   -0.9566 C.ar    1  UNL1        0.0000
     17 C           2.8475   -0.5102   -0.8982 C.ar    1  UNL1        0.0000
     18 N           2.4996   -0.1332    0.4227 N.ar    1  UNL1        0.0000
     19 C          -0.1572   -0.6843    0.8136 C.ar    1  UNL1        0.0000
     20 C          -0.8586   -0.3763    1.3320 C.ar    1  UNL1        0.0000
     21 N          -2.6961   -1.7740    0.1612 N.ar    1  UNL1        0.0000
     22 C          -2.6970   -1.2963   -1.7215 C.ar    1  UNL1        0.0000
     23 C          -1.9423   -1.6478   -2.0286 C.3     1  UNL1        0.0000
     24 C          -0.9681    1.3136    0.1551 C.3     1  UNL1        0.0000
     25 C           0.6643   -0.3070   -2.2203 C.3     1  UNL1        0.0000
     26 C          -0.7226    1.3108    0.0784 C.3     1  UNL1        0.0000
     27 C          -2.6039    0.1016    0.4381 C.3     1  UNL1        0.0000
     28 C           0.8563    0.9143    1.4853 C.3     1  UNL1        0.0000
     29 C           0.9688    1.3094    1.1101 C.3     1  UNL1        0.0000
     30 C          -0.9916   -2.4360    1.3697 C.3     1  UNL1        0.0000
     31 C          -1.6757    1.8051   -1.6467 C.ar    1  UNL1        0.0000
     32 N          -2.7367    3.2362   -0.1463 N.ar    1  UNL1        0.0000
     33 N          -1.3413    2.6611    1.4590 N.ar    1  UNL1        0.0000
     34 C          -0.1942   -0.5983    0.7064 C.ar    1  UNL1        0.0000
     35 C           0.8144   -0.0297   -0.3596 C.ar    1  UNL1        0.0000
     36 H          -2.5629    0.0341    2.2489 H       1  UNL1        0.0000
     37 H          -1.8202   -3.7664    2.6354 H       1  UNL1        0.0000
     38 H          -0.5481    0.8308    3.0660 H       1  UNL1        0.0000
     39 H           1.5868   -3.9493   -1.1995 H       1  UNL1        0.0000
     40 H          -1.1696   -0.9648    3.2611 H       1  UNL1        0.0000
     41 H           3.1621   -1.5536    2.1558 H       1  UNL1        0.0000
     42 H          -2.1185   -3.1803   -0.7067 H       1  UNL1        0.0000
     43 H          -0.7096    0.8525   -3.0608 H       1  UNL1        0.0000
     44 H           1.9071    0.6247   -1.7052 H       1  UNL1        0.0000
     45 H           0.4510   -2.1432   -1.3706 H       1  UNL1        0.0000
     46 H           0.3825   -0.3448    2.7186 H       1  UNL1        0.0000
     47 H          -0.1038   -2.6370   -3.8941 H       1  UNL1        0.0000
     48 H           3.0827   -3.4432   -0.7337 H       1  UNL1        0.0000
     49 H          -0.0608   -0.5384    4.1286 H       1  UNL1        0.0000
     50 H          -1.0242   -1.7544   -0.4329 H       1  UNL1        0.0000
     51 H          -1.0261   -1.7527   -0.4354 H       1  UNL1        0.0000
     52 H          -0.8581    3.4156   -1.9918 H       1  UNL1        0.0000
     53 H           2.0388   -2.6432   -2.2965 H       1  UNL1        0.0000
     54 H          -0.9547    2.9884   -0.5625 H       1  UNL1        0.0000
     55 H           1.1478   -1.6310    0.2680 H       1  UNL1        0.0000
     56 H           3.5311    1.2265    0.2127 H       1  UNL1        0.0000
     57 H           1.0295   -1.7437   -2.9203 H       1  UNL1        0.0000
     58 H          -3.5302   -1.4118   -3.2219 H       1  UNL1        0.0000
     59 H           1.3614   -0.3918    1.7068 H       1  UNL1        0.0000
     60 H          -2.7696    1.5781   -0.3686 H       1  UNL1        0.0000
     61 H           2.3067    0.4800   -3.0336 H       1  UNL1        0.0000
     62 H           2.1632    2.3257   -2.6172 H       1  UNL1        0.0000
     63 H           0.2900    2.3173    2.2844 H       1  UNL1        0.0000
     64 H           2.3595   -2.4851    0.5274 H       1  UNL1        0.0000
     65 H          -2.5241   -3.1031    1.3848 H       1  UNL1        0.0000
     66 H          -1.9521    1.2598    2.9437 H       1  UNL1        0.0000
     67 H           2.6244    1.9598    1.2875 H       1  UNL1        0.0000
     68 EU          1.4035    3.1158   -0.8441 Eu      1  UNL1        0.0000
@<TRIPOS>BOND
     1     1     2    2
     2     2     3   am
     3     3     4    1
     4     3     5    1
     5     5     6    1
     6     6     7    1
     7     2     8    1
     8     8     9   ar
     9     9    10   ar
    10     8    11   ar
    11    11    12   ar
    12    12    13   ar
    13    10    13   ar
    14    13    14   ar
    15    14    15   ar
    16    15    16   ar
    17    16    17   ar
    18    12    17   ar
    19    17    18   ar
    20    18    19   ar
    21    19    20    1
    22    20    21   ar
    23    21    22   ar
    24    22    23    1
    25    23    24    1
    26    23    25    1
    27    23    26    1
    28    26    27    1
    29    27    28    1
    30    28    29    1
    31    28    30    1
    32    22    31   ar
    33    28    31    1
    34    31    32   ar
    35    32    33   ar
    36    20    33   ar
    37    19    34   ar
    38    34    35   ar
    39    16    35   ar
    40     4    36    1
    41     4    37    1
    42     4    38    1
    43     5    39    1
    44     5    40    1
    45     6    41    1
    46     6    42    1
    47     7    43    1
    48     7    44    1
    49     7    45    1
    50     9    46    1
    51    10    47    1
    52    14    48    1
    53    15    49    1
    54    24    50    1
    55    24    51    1
    56    24    52    1
    57    25    53    1
    58    25    54    1
    59    25    55    1
    60    26    56    1
    61    26    57    1
    62    27    58    1
    63    27    59    1
    64    29    60    1
    65    29    61    1
    66    29    62    1
    67    30    63    1
    68    30    64    1
    69    30    65    1
    70    34    66    1
    71    35    67    1
    72    68     1    1
    73    68    33    1
    74    68    18    1
    75    68    11    1
@<TRIPOS>MOLECULE
*****
 68 75 0 0 0
SMALL
GASTEIGER

@<TRIPOS>ATOM
      1 O          -1.0107   -0.1700   -1.4276 O.2     1  UNL1        0.0000
      2 C          -1.2605   -0.0640   -1.1055 C.2     1  UNL1        0.0000
      3 N          -1.7385   -1.2343    2.6837 N.am    1  UNL1        0.0000
      4 C          -2.7566   -1.4112    2.6713 C.3     1  UNL1        0.0000
      5 C           0.4758   -2.3733    2.7045 C.3     1  UNL1        0.0000
      6 C           1.1046   -2.2636    1.9378 C.3     1  UNL1        0.0000
      7 C           0.0758   -2.2525   -1.7357 C.3     1  UNL1        0.0000
      8 C           0.7473    2.7086   -0.4645 C.ar    1  UNL1        0.0000
      9 C           2.0493    1.6517   -0.5051 C.ar    1  UNL1        0.0000
     10 C          -0.0830   -0.8886   -3.9346 C.ar    1  UNL1        0.0000
     11 N           0.9898    3.1411   -1.0535 N.ar    1  UNL1        0.0000
     12 C           0.5953    1.6750   -2.2337 C.ar    1  UNL1        0.0000
     13 C          -0.7115   -0.7891   -3.5793 C.ar    1  UNL1        0.0000
     14 C           0.4813   -3.4669   -0.1181 C.ar    1  UNL1        0.0000
     15 C           0.5762   -3.2623    0.3069 C.ar    1  UNL1        0.0000
     16 C           2.1365   -1.2720   -0.9058 C.ar    1  UNL1        0.0000
     17 C           2.8487   -0.5144   -0.8546 C.ar    1  UNL1        0.0000
     18 N           2.5109   -0.1091    0.4257 N.ar    1  UNL1        0.0000
     19 C          -0.1431   -0.6801    0.8306 C.ar    1  UNL1        0.0000
     20 C          -0.8451   -0.3462    1.3501 C.ar    1  UNL1        0.0000
     21 N          -2.7394   -1.7701    0.1569 N.ar    1  UNL1        0.0000
     22 C          -2.7992   -1.2426   -1.6204 C.ar    1  UNL1        0.0000
     23 C          -1.9699   -1.6570   -1.9930 C.3     1  UNL1        0.0000
     24 C          -0.9132    1.3190    0.1103 C.3     1  UNL1        0.0000
     25 C           0.6610   -0.3310   -2.2035 C.3     1  UNL1        0.0000
     26 C          -0.6641    1.3138    0.0263 C.3     1  UNL1        0.0000
     27 C          -2.5598    0.1028    0.4609 C.3     1  UNL1        0.0000
     28 C           0.7679    1.0204    1.4477 C.3     1  UNL1        0.0000
     29 C           1.0051    1.3602    1.0736 C.3     1  UNL1        0.0000
     30 C          -0.9952   -2.4327    1.3551 C.3     1  UNL1        0.0000
     31 C          -1.7577    1.8369   -1.6278 C.ar    1  UNL1        0.0000
     32 N          -2.7653    3.2523   -0.2041 N.ar    1  UNL1        0.0000
     33 N          -1.3739    2.6735    1.3900 N.ar    1  UNL1        0.0000
     34 C          -0.1895   -0.5912    0.7170 C.ar    1  UNL1        0.0000
     35 C           0.8297   -0.0547   -0.3401 C.ar    1  UNL1        0.0000
     36 H          -2.6164   -0.0364    2.2946 H       1  UNL1        0.0000
     37 H          -1.8446   -3.7108    2.6795 H       1  UNL1        0.0000
     38 H          -0.5889    0.7576    3.0913 H       1  UNL1        0.0000
     39 H           1.6477   -3.9702   -1.1770 H       1  UNL1        0.0000
     40 H          -1.1251   -1.0251    3.2301 H       1  UNL1        0.0000
     41 H           3.1004   -1.5754    2.1509 H       1  UNL1        0.0000
     42 H          -1.9594   -3.2048   -0.6019 H       1  UNL1        0.0000
     43 H          -0.7474    0.8276   -3.0274 H       1  UNL1        0.0000
     44 H           1.9204    0.5799   -1.7225 H       1  UNL1        0.0000
     45 H           0.4590   -2.1313   -1.3989 H       1  UNL1        0.0000
     46 H           0.4609   -0.3025    2.6989 H       1  UNL1        0.0000
     47 H          -0.1043   -2.5973   -3.9102 H       1  UNL1        0.0000
     48 H           3.0183   -3.4589   -0.7212 H       1  UNL1        0.0000
     49 H           0.0243   -0.6812    4.0857 H       1  UNL1        0.0000
     50 H          -1.0549   -1.7264   -0.4275 H       1  UNL1        0.0000
     51 H          -1.0561   -1.7254   -0.4288 H       1  UNL1        0.0000
     52 H          -0.8399    3.4024   -2.0045 H       1  UNL1        0.0000
     53 H           2.0640   -2.6289   -2.2830 H       1  UNL1        0.0000
     54 H          -0.9551    3.0039   -0.5643 H       1  UNL1        0.0000
     55 H           1.1297   -1.6607    0.2797 H       1  UNL1        0.0000
     56 H           3.5351    1.2417    0.2276 H       1  UNL1        0.0000
     57 H           1.1208   -1.7178   -2.9799 H       1  UNL1        0.0000
     58 H          -3.5559   -1.3476   -3.1703 H       1  UNL1        0.0000
     59 H           1.3879   -0.3832    1.6485 H       1  UNL1        0.0000
     60 H          -2.7521    1.5908   -0.2801 H       1  UNL1        0.0000
     61 H           2.3228    0.5063   -3.0562 H       1  UNL1        0.0000
     62 H           2.2097    2.3195   -2.4793 H       1  UNL1        0.0000
     63 H           0.1852    2.1612    2.3519 H       1  UNL1        0.0000
     64 H           2.3324   -2.5359    0.5757 H       1  UNL1        0.0000
     65 H          -2.5060   -3.1032    1.3711 H       1  UNL1        0.0000
     66 H          -1.9557    1.2692    2.8284 H       1  UNL1        0.0000
     67 H           2.6263    1.9388    1.2895 H       1  UNL1        0.0000
     68 EU          1.3661    3.1041   -0.9184 Eu      1  UNL1        0.0000
@<TRIPOS>BOND
     1     1     2    2
     2     2     3   am
     3     3     4    1
     4     3     5    1
     5     5     6    1
     6     6     7    1
     7     2     8    1
     8     8     9   ar
     9     9    10   ar
    10     8    11   ar
    11    11    12   ar
    12    12    13   ar
    13    10    13   ar
    14    13    14   ar
    15    14    15   ar
    16    15    16   ar
    17    16    17   ar
    18    12    17   ar
    19    17    18   ar
    20    18    19   ar
    21    19    20    1
    22    20    21   ar
    23    21    22   ar
    24    22    23    1
    25    23    24    1
    26    23    25    1
    27    23    26    1
    28    26    27    1
    29    27    28    1
    30    28    29    1
    31    28    30    1
    32    22    31   ar
    33    28    31    1
    34    31    32   ar
    35    32    33   ar
    36    20    33   ar
    37    19    34   ar
    38    34    35   ar
    39    16    35   ar
    40     4    36    1
    41     4    37    1
    42     4    38    1
    43     5    39    1
    44     5    40    1
    45     6    41    1
    46     6    42    1
    47     7    43    1
    48     7    44    1
    49     7    45    1
    50     9    46    1
    51    10    47    1
    52    14    48    1
    53    15    49    1
    54    24    50    1
    55    24    51    1
    56    24    52    1
    57    25    53    1
    58    25    54    1
    59    25    55    1
    60    26    56    1
    61    26    57    1
    62    27    58    1
    63    27    59    1
    64    29    60    1
    65    29    61    1
    66    29    62    1
    67    30    63    1
    68    30    64    1
    69    30    65    1
    70    34    66    1
    71    35    67    1
    72    68     1    1
    73    68    33    1
    74    68    18    1
    75    68    11    1
@<TRIPOS>MOLECULE
*****
 68 75 0 0 0
SMALL
GASTEIGER

@<TRIPOS>ATOM
      1 O          -1.0430   -0.1549   -1.4696 O.2     1  UNL1        0.0000
      2 C          -1.2847   -0.0453   -1.1571 C.2     1  UNL1        0.0000
      3 N          -1.7640   -1.2403    2.6440 N.am    1  UNL1        0.0000
      4 C          -2.7591   -1.3997    2.6950 C.3     1  UNL1        0.0000
      5 C           0.4803   -2.3976    2.6769 C.3     1  UNL1        0.0000
      6 C           1.0704   -2.2620    1.9543 C.3     1  UNL1        0.0000
      7 C           0.1245   -2.1516   -1.7028 C.3     1  UNL1        0.0000
      8 C           0.7606    2.7357   -0.5521 C.ar    1  UNL1        0.0000
      9 C           2.0760    1.6554   -0.5694 C.ar    1  UNL1        0.0000
     10 C          -0.0690   -0.9171   -3.9293 C.ar    1  UNL1        0.0000
     11 N           0.9982    3.1255   -1.1233 N.ar    1  UNL1        0.0000
     12 C           0.6075    1.6544   -2.2553 C.ar    1  UNL1        0.0000
     13 C          -0.6915   -0.8182   -3.5722 C.ar    1  UNL1        0.0000
     14 C           0.4640   -3.4974   -0.1764 C.ar    1  UNL1        0.0000
     15 C           0.5615   -3.2849    0.3063 C.ar    1  UNL1        0.0000
     16 C           2.1553   -1.2726   -0.8465 C.ar    1  UNL1        0.0000
     17 C           2.8556   -0.5164   -0.8041 C.ar    1  UNL1        0.0000
     18 N           2.5343   -0.0765    0.4232 N.ar    1  UNL1        0.0000
     19 C          -0.1387   -0.6626    0.8649 C.ar    1  UNL1        0.0000
     20 C          -0.8215   -0.3103    1.3743 C.ar    1  UNL1        0.0000
     21 N          -2.7852   -1.7679    0.1580 N.ar    1  UNL1        0.0000
     22 C          -2.9237   -1.1709   -1.4922 C.ar    1  UNL1        0.0000
     23 C          -1.9893   -1.6826   -1.9472 C.3     1  UNL1        0.0000
     24 C          -0.8658    1.3237    0.0402 C.3     1  UNL1        0.0000
     25 C           0.6574   -0.3235   -2.1918 C.3     1  UNL1        0.0000
     26 C          -0.6022    1.3142   -0.0512 C.3     1  UNL1        0.0000
     27 C          -2.5151    0.0974    0.4794 C.3     1  UNL1        0.0000
     28 C           0.6626    1.1456    1.4102 C.3     1  UNL1        0.0000
     29 C           1.0330    1.4325    1.0330 C.3     1  UNL1        0.0000
     30 C          -1.0043   -2.4255    1.3322 C.3     1  UNL1        0.0000
     31 C          -1.8774    1.8778   -1.5956 C.ar    1  UNL1        0.0000
     32 N          -2.7958    3.2723   -0.2821 N.ar    1  UNL1        0.0000
     33 N          -1.4072    2.6824    1.3056 N.ar    1  UNL1        0.0000
     34 C          -0.1928   -0.5718    0.7297 C.ar    1  UNL1        0.0000
     35 C           0.8522   -0.0787   -0.3146 C.ar    1  UNL1        0.0000
     36 H          -2.6771   -0.1134    2.3473 H       1  UNL1        0.0000
     37 H          -1.8780   -3.6352    2.7356 H       1  UNL1        0.0000
     38 H          -0.6669    0.6460    3.1483 H       1  UNL1        0.0000
     39 H           1.6887   -4.0184   -1.1555 H       1  UNL1        0.0000
     40 H          -1.0746   -1.1013    3.1889 H       1  UNL1        0.0000
     41 H           3.0216   -1.6027    2.1465 H       1  UNL1        0.0000
     42 H          -1.7756   -3.2272   -0.4647 H       1  UNL1        0.0000
     43 H          -0.7929    0.8010   -2.9871 H       1  UNL1        0.0000
     44 H           1.9543    0.5276   -1.7419 H       1  UNL1        0.0000
     45 H           0.4811   -2.1273   -1.4301 H       1  UNL1        0.0000
     46 H           0.5555   -0.2090    2.6922 H       1  UNL1        0.0000
     47 H          -0.1015   -2.5482   -3.9267 H       1  UNL1        0.0000
     48 H           2.9846   -3.4604   -0.7039 H       1  UNL1        0.0000
     49 H           0.1334   -0.8799    4.0108 H       1  UNL1        0.0000
     50 H          -1.0875   -1.6814   -0.4241 H       1  UNL1        0.0000
     51 H          -1.0881   -1.6810   -0.4246 H       1  UNL1        0.0000
     52 H          -0.8162    3.3734   -2.0231 H       1  UNL1        0.0000
     53 H           2.0894   -2.6114   -2.2572 H       1  UNL1        0.0000
     54 H          -0.9542    3.0199   -0.5703 H       1  UNL1        0.0000
     55 H           1.0985   -1.6934    0.2858 H       1  UNL1        0.0000
     56 H           3.5453    1.2701    0.2323 H       1  UNL1        0.0000
     57 H           1.2149   -1.6706   -3.0130 H       1  UNL1        0.0000
     58 H          -3.5730   -1.2641   -3.0997 H       1  UNL1        0.0000
     59 H           1.4151   -0.3829    1.5967 H       1  UNL1        0.0000
     60 H          -2.7165    1.6264   -0.1402 H       1  UNL1        0.0000
     61 H           2.3388    0.5593   -3.0840 H       1  UNL1        0.0000
     62 H           2.2646    2.3105   -2.3250 H       1  UNL1        0.0000
     63 H           0.0563    1.9328    2.4038 H       1  UNL1        0.0000
     64 H           2.2973   -2.5924    0.6299 H       1  UNL1        0.0000
     65 H          -2.4793   -3.1055    1.3546 H       1  UNL1        0.0000
     66 H          -1.9479    1.2721    2.6664 H       1  UNL1        0.0000
     67 H           2.6520    1.9193    1.2992 H       1  UNL1        0.0000
     68 EU          1.3346    3.0903   -1.0076 Eu      1  UNL1        0.0000
@<TRIPOS>BOND
     1     1     2    2
     2     2     3   am
     3     3     4    1
     4     3     5    1
     5     5     6    1
     6     6     7    1
     7     2     8    1
     8     8     9   ar
     9     9    10   ar
    10     8    11   ar
    11    11    12   ar
    12    12    13   ar
    13    10    13   ar
    14    13    14   ar
    15    14    15   ar
    16    15    16   ar
    17    16    17   ar
    18    12    17   ar
    19    17    18   ar
    20    18    19   ar
    21    19    20    1
    22    20    21   ar
    23    21    22   ar
    24    22    23    1
    25    23    24    1
    26    23    25    1
    27    23    26    1
    28    26    27    1
    29    27    28    1
    30    28    29    1
    31    28    30    1
    32    22    31   ar
    33    28    31    1
    34    31    32   ar
    35    32    33   ar
    36    20    33   ar
    37    19    34   ar
    38    34    35   ar
    39    16    35   ar
    40     4    36    1
    41     4    37    1
    42     4    38    1
    43     5    39    1
    44     5    40    1
    45     6    41    1
    46     6    42    1
    47     7    43    1
    48     7    44    1
    49     7    45    1
    50     9    46    1
    51    10    47    1
    52    14    48    1
    53    15    49    1
    54    24    50    1
    55    24    51    1
    56    24    52    1
    57    25    53    1
    58    25    54    1
    59    25    55    1
    60    26    56    1
    61    26    57    1
    62    27    58    1
    63    27    59    1
    64    29    60    1
    65    29    61    1
    66    29    62    1
    67    30    63    1
    68    30    64    1
    69    30    65    1
    70    34    66    1
    71    35    67    1
    72    68     1    1
    73    68    33    1
    74    68    18    1
    75    68    11    1
@<TRIPOS>MOLECULE
*****
 68 75 0 0 0
SMALL
GASTEIGER

@<TRIPOS>ATOM
      1 O          -1.1362   -0.1482   -1.5501 O.2     1  UNL1        0.0000
      2 C          -1.3884   -0.0088   -1.2773 C.2     1  UNL1        0.0000
      3 N          -1.8452   -1.2360    2.5351 N.am    1  UNL1        0.0000
      4 C          -2.7685   -1.3914    2.7716 C.3     1  UNL1        0.0000
      5 C           0.4874   -2.4943    2.5929 C.3     1  UNL1        0.0000
      6 C           1.0254   -2.2593    1.9714 C.3     1  UNL1        0.0000
      7 C           0.1701   -2.0807   -1.6370 C.3     1  UNL1        0.0000
      8 C           0.7998    2.7269   -0.7054 C.ar    1  UNL1        0.0000
      9 C           2.0840    1.5951   -0.6356 C.ar    1  UNL1        0.0000
     10 C          -0.0308   -0.9681   -3.9042 C.ar    1  UNL1        0.0000
     11 N           1.0220    3.0306   -1.1758 N.ar    1  UNL1        0.0000
     12 C           0.6558    1.6500   -2.2821 C.ar    1  UNL1        0.0000
     13 C          -0.6467   -0.8606   -3.5579 C.ar    1  UNL1        0.0000
     14 C           0.4484   -3.5543   -0.2466 C.ar    1  UNL1        0.0000
     15 C           0.5428   -3.3351    0.3163 C.ar    1  UNL1        0.0000
     16 C           2.1832   -1.2767   -0.7495 C.ar    1  UNL1        0.0000
     17 C           2.8844   -0.5059   -0.7094 C.ar    1  UNL1        0.0000
     18 N           2.5664   -0.0119    0.4482 N.ar    1  UNL1        0.0000
     19 C          -0.0892   -0.6337    0.9399 C.ar    1  UNL1        0.0000
     20 C          -0.7773   -0.2287    1.4224 C.ar    1  UNL1        0.0000
     21 N          -2.8442   -1.7567    0.1930 N.ar    1  UNL1        0.0000
     22 C          -3.1158   -1.0758   -1.2782 C.ar    1  UNL1        0.0000
     23 C          -1.9997   -1.7540   -1.8775 C.3     1  UNL1        0.0000
     24 C          -0.7948    1.3141   -0.1164 C.3     1  UNL1        0.0000
     25 C           0.6215   -0.2773   -2.1394 C.3     1  UNL1        0.0000
     26 C          -0.5168    1.2906   -0.2143 C.3     1  UNL1        0.0000
     27 C          -2.4445    0.0989    0.4811 C.3     1  UNL1        0.0000
     28 C           0.5117    1.3309    1.3848 C.3     1  UNL1        0.0000
     29 C           1.0313    1.5854    0.9929 C.3     1  UNL1        0.0000
     30 C          -1.0167   -2.3975    1.2872 C.3     1  UNL1        0.0000
     31 C          -2.1234    1.9398   -1.4921 C.ar    1  UNL1        0.0000
     32 N          -2.8317    3.2731   -0.4107 N.ar    1  UNL1        0.0000
     33 N          -1.4201    2.6790    1.1810 N.ar    1  UNL1        0.0000
     34 C          -0.1702   -0.5273    0.7458 C.ar    1  UNL1        0.0000
     35 C           0.8900   -0.1138   -0.2469 C.ar    1  UNL1        0.0000
     36 H          -2.7634   -0.2092    2.4180 H       1  UNL1        0.0000
     37 H          -1.9404   -3.4956    2.8298 H       1  UNL1        0.0000
     38 H          -0.8590    0.4194    3.2903 H       1  UNL1        0.0000
     39 H           1.7356   -4.1415   -1.1065 H       1  UNL1        0.0000
     40 H          -1.0020   -1.2383    3.1223 H       1  UNL1        0.0000
     41 H           2.8887   -1.6478    2.1435 H       1  UNL1        0.0000
     42 H          -1.5188   -3.2574   -0.2624 H       1  UNL1        0.0000
     43 H          -0.8393    0.7810   -2.9574 H       1  UNL1        0.0000
     44 H           2.0424    0.4180   -1.7911 H       1  UNL1        0.0000
     45 H           0.5405   -2.1461   -1.4939 H       1  UNL1        0.0000
     46 H           0.6953    0.0313    2.7115 H       1  UNL1        0.0000
     47 H          -0.0896   -2.4702   -3.9464 H       1  UNL1        0.0000
     48 H           2.9613   -3.4367   -0.6882 H       1  UNL1        0.0000
     49 H           0.3102   -1.1997    3.8371 H       1  UNL1        0.0000
     50 H          -1.1312   -1.5835   -0.4242 H       1  UNL1        0.0000
     51 H          -1.1314   -1.5834   -0.4243 H       1  UNL1        0.0000
     52 H          -0.7880    3.2877   -2.0678 H       1  UNL1        0.0000
     53 H           2.1129   -2.5781   -2.2085 H       1  UNL1        0.0000
     54 H          -0.9461    3.0371   -0.5945 H       1  UNL1        0.0000
     55 H           1.0186   -1.7513    0.2589 H       1  UNL1        0.0000
     56 H           3.5686    1.3393    0.1999 H       1  UNL1        0.0000
     57 H           1.3462   -1.5499   -2.9871 H       1  UNL1        0.0000
     58 H          -3.5650   -1.1177   -2.9707 H       1  UNL1        0.0000
     59 H           1.4576   -0.4154    1.5870 H       1  UNL1        0.0000
     60 H          -2.5912    1.7350    0.1767 H       1  UNL1        0.0000
     61 H           2.3433    0.7154   -3.1247 H       1  UNL1        0.0000
     62 H           2.3754    2.3108   -2.2050 H       1  UNL1        0.0000
     63 H          -0.1266    1.5290    2.4010 H       1  UNL1        0.0000
     64 H           2.2342   -2.6673    0.6965 H       1  UNL1        0.0000
     65 H          -2.4264   -3.1168    1.3340 H       1  UNL1        0.0000
     66 H          -1.8874    1.2282    2.3710 H       1  UNL1        0.0000
     67 H           2.6931    1.8640    1.3348 H       1  UNL1        0.0000
     68 EU          1.2554    2.9938   -1.0909 Eu      1  UNL1        0.0000
@<TRIPOS>BOND
     1     1     2    2
     2     2     3   am
     3     3     4    1
     4     3     5    1
     5     5     6    1
     6     6     7    1
     7     2     8    1
     8     8     9   ar
     9     9    10   ar
    10     8    11   ar
    11    11    12   ar
    12    12    13   ar
    13    10    13   ar
    14    13    14   ar
    15    14    15   ar
    16    15    16   ar
    17    16    17   ar
    18    12    17   ar
    19    17    18   ar
    20    18    19   ar
    21    19    20    1
    22    20    21   ar
    23    21    22   ar
    24    22    23    1
    25    23    24    1
    26    23    25    1
    27    23    26    1
    28    26    27    1
    29    27    28    1
    30    28    29    1
    31    28    30    1
    32    22    31   ar
    33    28    31    1
    34    31    32   ar
    35    32    33   ar
    36    20    33   ar
    37    19    34   ar
    38    34    35   ar
    39    16    35   ar
    40     4    36    1
    41     4    37    1
    42     4    38    1
    43     5    39    1
    44     5    40    1
    45     6    41    1
    46     6    42    1
    47     7    43    1
    48     7    44    1
    49     7    45    1
    50     9    46    1
    51    10    47    1
    52    14    48    1
    53    15    49    1
    54    24    50    1
    55    24    51    1
    56    24    52    1
    57    25    53    1
    58    25    54    1
    59    25    55    1
    60    26    56    1
    61    26    57    1
    62    27    58    1
    63    27    59    1
    64    29    60    1
    65    29    61    1
    66    29    62    1
    67    30    63    1
    68    30    64    1
    69    30    65    1
    70    34    66    1
    71    35    67    1
    72    68     1    1
    73    68    33    1
    74    68    18    1
    75    68    11    1
@<TRIPOS>MOLECULE
*****
 68 75 0 0 0
SMALL
GASTEIGER

@<TRIPOS>ATOM
      1 O          -1.4083   -0.1013   -1.7350 O.2     1  UNL1        0.0000
      2 C          -1.6981    0.1010   -1.4467 C.2     1  UNL1        0.0000
      3 N          -2.0366   -1.1897    2.2985 N.am    1  UNL1        0.0000
      4 C          -2.7707   -1.3749    2.9084 C.3     1  UNL1        0.0000
      5 C           0.4992   -2.7263    2.4601 C.3     1  UNL1        0.0000
      6 C           0.9967   -2.2605    1.9680 C.3     1  UNL1        0.0000
      7 C           0.2216   -2.0556   -1.5859 C.3     1  UNL1        0.0000
      8 C           0.7554    2.7678   -0.8856 C.ar    1  UNL1        0.0000
      9 C           2.0328    1.4503   -0.7643 C.ar    1  UNL1        0.0000
     10 C           0.0354   -1.0093   -3.8229 C.ar    1  UNL1        0.0000
     11 N           1.0100    3.0592   -1.3480 N.ar    1  UNL1        0.0000
     12 C           0.7544    1.6683   -2.3897 C.ar    1  UNL1        0.0000
     13 C          -0.5262   -0.8936   -3.5224 C.ar    1  UNL1        0.0000
     14 C           0.4690   -3.6344   -0.3232 C.ar    1  UNL1        0.0000
     15 C           0.5709   -3.4169    0.3568 C.ar    1  UNL1        0.0000
     16 C           2.2090   -1.3031   -0.6087 C.ar    1  UNL1        0.0000
     17 C           2.9617   -0.4690   -0.5816 C.ar    1  UNL1        0.0000
     18 N           2.6370    0.1036    0.5662 N.ar    1  UNL1        0.0000
     19 C           0.0216   -0.5404    0.9994 C.ar    1  UNL1        0.0000
     20 C          -0.7096   -0.2089    1.4144 C.ar    1  UNL1        0.0000
     21 N          -2.8919   -1.6948    0.3120 N.ar    1  UNL1        0.0000
     22 C          -3.2805   -1.1001   -1.0364 C.ar    1  UNL1        0.0000
     23 C          -1.9444   -1.8506   -1.7902 C.3     1  UNL1        0.0000
     24 C          -0.6640    1.2288   -0.3622 C.3     1  UNL1        0.0000
     25 C           0.4691   -0.1820   -1.9156 C.3     1  UNL1        0.0000
     26 C          -0.4048    1.1701   -0.4782 C.3     1  UNL1        0.0000
     27 C          -2.3485    0.1588    0.4576 C.3     1  UNL1        0.0000
     28 C           0.3083    1.5244    1.3849 C.3     1  UNL1        0.0000
     29 C           0.9873    1.8357    0.9016 C.3     1  UNL1        0.0000
     30 C          -0.9885   -2.3131    1.2220 C.3     1  UNL1        0.0000
     31 C          -2.3823    2.0007   -1.2423 C.ar    1  UNL1        0.0000
     32 N          -2.8311    3.1907   -0.4766 N.ar    1  UNL1        0.0000
     33 N          -1.2846    2.7362    1.1079 N.ar    1  UNL1        0.0000
     34 C          -0.0524   -0.4494    0.8065 C.ar    1  UNL1        0.0000
     35 C           0.9622   -0.1759   -0.0438 C.ar    1  UNL1        0.0000
     36 H          -2.8387   -0.2703    2.4712 H       1  UNL1        0.0000
     37 H          -2.0147   -3.3258    2.9278 H       1  UNL1        0.0000
     38 H          -1.0952    0.2209    3.4124 H       1  UNL1        0.0000
     39 H           1.8149   -4.3569   -0.9827 H       1  UNL1        0.0000
     40 H          -0.9269   -1.4230    3.0470 H       1  UNL1        0.0000
     41 H           2.7538   -1.7025    2.1498 H       1  UNL1        0.0000
     42 H          -1.3659   -3.2970   -0.1826 H       1  UNL1        0.0000
     43 H          -0.8051    0.7943   -3.0107 H       1  UNL1        0.0000
     44 H           2.1357    0.1113   -1.9533 H       1  UNL1        0.0000
     45 H           0.5944   -2.2074   -1.5995 H       1  UNL1        0.0000
     46 H           0.8764    0.2762    2.7047 H       1  UNL1        0.0000
     47 H          -0.0687   -2.3954   -3.9560 H       1  UNL1        0.0000
     48 H           2.9158   -3.3932   -0.7190 H       1  UNL1        0.0000
     49 H           0.4267   -1.4828    3.7105 H       1  UNL1        0.0000
     50 H          -1.1546   -1.4176   -0.4395 H       1  UNL1        0.0000
     51 H          -1.1547   -1.4176   -0.4395 H       1  UNL1        0.0000
     52 H          -0.7960    3.1340   -2.1387 H       1  UNL1        0.0000
     53 H           2.1095   -2.5222   -2.1719 H       1  UNL1        0.0000
     54 H          -0.9491    3.0147   -0.6291 H       1  UNL1        0.0000
     55 H           0.8509   -1.8284    0.1523 H       1  UNL1        0.0000
     56 H           3.5496    1.4670    0.1075 H       1  UNL1        0.0000
     57 H           1.4838   -1.2929   -2.8545 H       1  UNL1        0.0000
     58 H          -3.4935   -0.9323   -2.7990 H       1  UNL1        0.0000
     59 H           1.5563   -0.5141    1.7003 H       1  UNL1        0.0000
     60 H          -2.4753    1.8268    0.5052 H       1  UNL1        0.0000
     61 H           2.3112    1.0331   -3.0662 H       1  UNL1        0.0000
     62 H           2.5212    2.3590   -2.1689 H       1  UNL1        0.0000
     63 H          -0.2594    1.2401    2.3366 H       1  UNL1        0.0000
     64 H           2.1874   -2.7100    0.7299 H       1  UNL1        0.0000
     65 H          -2.3530   -3.1382    1.3208 H       1  UNL1        0.0000
     66 H          -1.8378    1.1507    2.1242 H       1  UNL1        0.0000
     67 H           2.6833    1.7226    1.3867 H       1  UNL1        0.0000
     68 EU          1.3457    2.9798   -1.2221 Eu      1  UNL1        0.0000
@<TRIPOS>BOND
     1     1     2    2
     2     2     3   am
     3     3     4    1
     4     3     5    1
     5     5     6    1
     6     6     7    1
     7     2     8    1
     8     8     9   ar
     9     9    10   ar
    10     8    11   ar
    11    11    12   ar
    12    12    13   ar
    13    10    13   ar
    14    13    14   ar
    15    14    15   ar
    16    15    16   ar
    17    16    17   ar
    18    12    17   ar
    19    17    18   ar
    20    18    19   ar
    21    19    20    1
    22    20    21   ar
    23    21    22   ar
    24    22    23    1
    25    23    24    1
    26    23    25    1
    27    23    26    1
    28    26    27    1
    29    27    28    1
    30    28    29    1
    31    28    30    1
    32    22    31   ar
    33    28    31    1
    34    31    32   ar
    35    32    33   ar
    36    20    33   ar
    37    19    34   ar
    38    34    35   ar
    39    16    35   ar
    40     4    36    1
    41     4    37    1
    42     4    38    1
    43     5    39    1
    44     5    40    1
    45     6    41    1
    46     6    42    1
    47     7    43    1
    48     7    44    1
    49     7    45    1
    50     9    46    1
    51    10    47    1
    52    14    48    1
    53    15    49    1
    54    24    50    1
    55    24    51    1
    56    24    52    1
    57    25    53    1
    58    25    54    1
    59    25    55    1
    60    26    56    1
    61    26    57    1
    62    27    58    1
    63    27    59    1
    64    29    60    1
    65    29    61    1
    66    29    62    1
    67    30    63    1
    68    30    64    1
    69    30    65    1
    70    34    66    1
    71    35    67    1
    72    68     1    1
    73    68    33    1
    74    68    18    1
    75    68    11    1
@<TRIPOS>MOLECULE
*****
 68 75 0 0 0
SMALL
GASTEIGER

@<TRIPOS>ATOM
      1 O          -1.8370    0.0970   -2.1285 O.2     1  UNL1        0.0000
      2 C          -2.1469    0.3336   -1.6399 C.2     1  UNL1        0.0000
      3 N          -2.3023   -1.1454    1.9948 N.am    1  UNL1        0.0000
      4 C          -2.7316   -1.3157    3.0728 C.3     1  UNL1        0.0000
      5 C           0.3610   -3.0098    2.3545 C.3     1  UNL1        0.0000
      6 C           0.9624   -2.3130    1.9238 C.3     1  UNL1        0.0000
      7 C           0.3455   -2.0016   -1.7453 C.3     1  UNL1        0.0000
      8 C           0.6270    2.7918   -1.1774 C.ar    1  UNL1        0.0000
      9 C           1.8903    1.2490   -0.9079 C.ar    1  UNL1        0.0000
     10 C           0.0811   -0.9698   -3.6591 C.ar    1  UNL1        0.0000
     11 N           0.9759    3.0512   -1.5993 N.ar    1  UNL1        0.0000
     12 C           0.8462    1.5195   -2.6391 C.ar    1  UNL1        0.0000
     13 C          -0.2852   -0.8855   -3.4630 C.ar    1  UNL1        0.0000
     14 C           0.5615   -3.6653   -0.5838 C.ar    1  UNL1        0.0000
     15 C           0.6602   -3.4368    0.3128 C.ar    1  UNL1        0.0000
     16 C           2.1810   -1.3811   -0.4041 C.ar    1  UNL1        0.0000
     17 C           3.0627   -0.4191   -0.5368 C.ar    1  UNL1        0.0000
     18 N           2.7609    0.2453    0.5870 N.ar    1  UNL1        0.0000
     19 C           0.1179   -0.4423    1.2069 C.ar    1  UNL1        0.0000
     20 C          -0.6789   -0.2366    1.6113 C.ar    1  UNL1        0.0000
     21 N          -2.9606   -1.5962    0.3353 N.ar    1  UNL1        0.0000
     22 C          -3.2940   -1.1481   -0.7503 C.ar    1  UNL1        0.0000
     23 C          -1.7202   -1.7104   -1.5047 C.3     1  UNL1        0.0000
     24 C          -0.4390    0.8796   -0.8028 C.3     1  UNL1        0.0000
     25 C           0.1561   -0.0353   -1.4676 C.3     1  UNL1        0.0000
     26 C          -0.1891    0.7399   -0.9329 C.3     1  UNL1        0.0000
     27 C          -2.0926    0.2884    0.3544 C.3     1  UNL1        0.0000
     28 C           0.0526    1.6311    1.2660 C.3     1  UNL1        0.0000
     29 C           0.9129    2.0698    0.6857 C.3     1  UNL1        0.0000
     30 C          -0.9669   -2.1987    1.0929 C.3     1  UNL1        0.0000
     31 C          -2.5746    2.0366   -0.7793 C.ar    1  UNL1        0.0000
     32 N          -2.7469    3.1496   -0.3380 N.ar    1  UNL1        0.0000
     33 N          -1.2747    2.9211    0.9742 N.ar    1  UNL1        0.0000
     34 C           0.0321   -0.3661    0.9419 C.ar    1  UNL1        0.0000
     35 C           1.0280   -0.2552    0.3789 C.ar    1  UNL1        0.0000
     36 H          -2.9132   -0.3108    2.5278 H       1  UNL1        0.0000
     37 H          -2.1089   -3.1014    3.0299 H       1  UNL1        0.0000
     38 H          -1.3493    0.0237    3.4882 H       1  UNL1        0.0000
     39 H           1.9437   -4.6996   -0.5412 H       1  UNL1        0.0000
     40 H          -0.8518   -1.6453    2.9697 H       1  UNL1        0.0000
     41 H           2.6588   -1.8455    2.1878 H       1  UNL1        0.0000
     42 H          -1.2549   -3.3855   -0.1502 H       1  UNL1        0.0000
     43 H          -0.7094    0.7902   -3.1192 H       1  UNL1        0.0000
     44 H           2.1282   -0.0986   -2.0250 H       1  UNL1        0.0000
     45 H           0.5766   -2.2823   -1.7882 H       1  UNL1        0.0000
     46 H           1.2133    0.6704    2.4679 H       1  UNL1        0.0000
     47 H          -0.0386   -2.3077   -3.9521 H       1  UNL1        0.0000
     48 H           2.7607   -3.4001   -0.8703 H       1  UNL1        0.0000
     49 H           0.4763   -1.8861    3.6998 H       1  UNL1        0.0000
     50 H          -1.1234   -1.1525   -0.5559 H       1  UNL1        0.0000
     51 H          -1.1234   -1.1525   -0.5559 H       1  UNL1        0.0000
     52 H          -0.8939    2.8641   -2.2574 H       1  UNL1        0.0000
     53 H           2.1363   -2.3729   -2.1495 H       1  UNL1        0.0000
     54 H          -0.9827    2.8052   -0.7003 H       1  UNL1        0.0000
     55 H           0.4721   -1.7961   -0.0614 H       1  UNL1        0.0000
     56 H           3.3576    1.7287   -0.0535 H       1  UNL1        0.0000
     57 H           1.5152   -1.1208   -2.7635 H       1  UNL1        0.0000
     58 H          -3.3827   -0.7136   -2.5373 H       1  UNL1        0.0000
     59 H           1.6838   -0.6332    1.9284 H       1  UNL1        0.0000
     60 H          -2.5296    1.8805    0.9602 H       1  UNL1        0.0000
     61 H           2.5664    1.3069   -2.6485 H       1  UNL1        0.0000
     62 H           2.7015    2.4103   -2.0426 H       1  UNL1        0.0000
     63 H          -0.2956    1.1888    2.4286 H       1  UNL1        0.0000
     64 H           2.2133   -2.7580    0.7677 H       1  UNL1        0.0000
     65 H          -2.2381   -3.1467    1.3068 H       1  UNL1        0.0000
     66 H          -1.8137    1.0725    2.0303 H       1  UNL1        0.0000
     67 H           2.5453    1.6483    1.5157 H       1  UNL1        0.0000
     68 EU          1.3696    2.8870   -1.3709 Eu      1  UNL1        0.0000
@<TRIPOS>BOND
     1     1     2    2
     2     2     3   am
     3     3     4    1
     4     3     5    1
     5     5     6    1
     6     6     7    1
     7     2     8    1
     8     8     9   ar
     9     9    10   ar
    10     8    11   ar
    11    11    12   ar
    12    12    13   ar
    13    10    13   ar
    14    13    14   ar
    15    14    15   ar
    16    15    16   ar
    17    16    17   ar
    18    12    17   ar
    19    17    18   ar
    20    18    19   ar
    21    19    20    1
    22    20    21   ar
    23    21    22   ar
    24    22    23    1
    25    23    24    1
    26    23    25    1
    27    23    26    1
    28    26    27    1
    29    27    28    1
    30    28    29    1
    31    28    30    1
    32    22    31   ar
    33    28    31    1
    34    31    32   ar
    35    32    33   ar
    36    20    33   ar
    37    19    34   ar
    38    34    35   ar
    39    16    35   ar
    40     4    36    1
    41     4    37    1
    42     4    38    1
    43     5    39    1
    44     5    40    1
    45     6    41    1
    46     6    42    1
    47     7    43    1
    48     7    44    1
    49     7    45    1
    50     9    46    1
    51    10    47    1
    52    14    48    1
    53    15    49    1
    54    24    50    1
    55    24    51    1
    56    24    52    1
    57    25    53    1
    58    25    54    1
    59    25    55    1
    60    26    56    1
    61    26    57    1
    62    27    58    1
    63    27    59    1
    64    29    60    1
    65    29    61    1
    66    29    62    1
    67    30    63    1
    68    30    64    1
    69    30    65    1
    70    34    66    1
    71    35    67    1
    72    68     1    1
    73    68    33    1
    74    68    18    1
    75    68    11    1
@<TRIPOS>MOLECULE
*****
 68 75 0 0 0
SMALL
GASTEIGER

@<TRIPOS>ATOM
      1 O          -1.9440    0.2248   -2.2438 O.2     1  UNL1        0.0000
      2 C          -2.2407    0.4726   -1.6780 C.2     1  UNL1        0.0000
      3 N          -2.3880   -1.1181    1.9170 N.am    1  UNL1        0.0000
      4 C          -2.6942   -1.2711    3.1406 C.3     1  UNL1        0.0000
      5 C           0.1650   -3.1594    2.2922 C.3     1  UNL1        0.0000
      6 C           0.9380   -2.3568    1.8925 C.3     1  UNL1        0.0000
      7 C           0.4528   -1.8967   -1.7928 C.3     1  UNL1        0.0000
      8 C           0.5598    2.7430   -1.3470 C.ar    1  UNL1        0.0000
      9 C           1.7932    1.1893   -0.9225 C.ar    1  UNL1        0.0000
     10 C           0.0910   -0.9976   -3.6708 C.ar    1  UNL1        0.0000
     11 N           0.9697    2.9818   -1.7762 N.ar    1  UNL1        0.0000
     12 C           0.9488    1.3623   -2.7854 C.ar    1  UNL1        0.0000
     13 C          -0.1342   -0.9539   -3.5610 C.ar    1  UNL1        0.0000
     14 C           0.6578   -3.6599   -0.8078 C.ar    1  UNL1        0.0000
     15 C           0.7074   -3.3672    0.2179 C.ar    1  UNL1        0.0000
     16 C           2.1290   -1.4158   -0.3458 C.ar    1  UNL1        0.0000
     17 C           3.0578   -0.4412   -0.5379 C.ar    1  UNL1        0.0000
     18 N           2.7946    0.2790    0.5359 N.ar    1  UNL1        0.0000
     19 C           0.2281   -0.3940    1.3163 C.ar    1  UNL1        0.0000
     20 C          -0.7133   -0.2181    1.7801 C.ar    1  UNL1        0.0000
     21 N          -2.9842   -1.5107    0.2552 N.ar    1  UNL1        0.0000
     22 C          -3.2158   -1.0583   -0.6228 C.ar    1  UNL1        0.0000
     23 C          -1.5897   -1.5220   -1.3454 C.3     1  UNL1        0.0000
     24 C          -0.3156    0.5954   -1.0355 C.3     1  UNL1        0.0000
     25 C           0.0758    0.0399   -1.3631 C.3     1  UNL1        0.0000
     26 C          -0.0983    0.4678   -1.0890 C.3     1  UNL1        0.0000
     27 C          -1.8933    0.4271    0.3211 C.3     1  UNL1        0.0000
     28 C          -0.1234    1.6407    1.0626 C.3     1  UNL1        0.0000
     29 C           0.8488    2.1776    0.5930 C.3     1  UNL1        0.0000
     30 C          -0.9780   -2.0910    1.0197 C.3     1  UNL1        0.0000
     31 C          -2.6718    1.9781   -0.4924 C.ar    1  UNL1        0.0000
     32 N          -2.7181    3.1572   -0.1995 N.ar    1  UNL1        0.0000
     33 N          -1.3651    3.0152    0.9112 N.ar    1  UNL1        0.0000
     34 C           0.1431   -0.3400    1.0820 C.ar    1  UNL1        0.0000
     35 C           1.0304   -0.2741    0.5704 C.ar    1  UNL1        0.0000
     36 H          -2.9567   -0.3272    2.5603 H       1  UNL1        0.0000
     37 H          -2.1698   -2.9736    3.0782 H       1  UNL1        0.0000
     38 H          -1.4830   -0.0821    3.5594 H       1  UNL1        0.0000
     39 H           1.9245   -4.7795   -0.1168 H       1  UNL1        0.0000
     40 H          -0.8144   -1.7913    2.9557 H       1  UNL1        0.0000
     41 H           2.6214   -1.9645    2.2203 H       1  UNL1        0.0000
     42 H          -1.1632   -3.4629   -0.0931 H       1  UNL1        0.0000
     43 H          -0.6708    0.7171   -3.1772 H       1  UNL1        0.0000
     44 H           2.1452   -0.1185   -2.0343 H       1  UNL1        0.0000
     45 H           0.5324   -2.2858   -1.9742 H       1  UNL1        0.0000
     46 H           1.3524    0.8917    2.2104 H       1  UNL1        0.0000
     47 H          -0.0235   -2.2606   -3.9510 H       1  UNL1        0.0000
     48 H           2.6052   -3.4843   -0.9773 H       1  UNL1        0.0000
     49 H           0.5406   -2.0973    3.6678 H       1  UNL1        0.0000
     50 H          -1.1615   -1.1123   -0.6290 H       1  UNL1        0.0000
     51 H          -1.1615   -1.1123   -0.6290 H       1  UNL1        0.0000
     52 H          -0.9905    2.6454   -2.3367 H       1  UNL1        0.0000
     53 H           2.1946   -2.2695   -2.0956 H       1  UNL1        0.0000
     54 H          -1.0027    2.5322   -0.7364 H       1  UNL1        0.0000
     55 H           0.3126   -1.6983   -0.1315 H       1  UNL1        0.0000
     56 H           3.1960    1.8536   -0.1282 H       1  UNL1        0.0000
     57 H           1.6193   -1.1012   -2.9007 H       1  UNL1        0.0000
     58 H          -3.4353   -0.6982   -2.4162 H       1  UNL1        0.0000
     59 H           1.7153   -0.6242    2.1688 H       1  UNL1        0.0000
     60 H          -2.5579    1.9040    1.2341 H       1  UNL1        0.0000
     61 H           2.7156    1.4830   -2.3960 H       1  UNL1        0.0000
     62 H           2.7923    2.4131   -1.8778 H       1  UNL1        0.0000
     63 H          -0.2439    1.2196    2.5370 H       1  UNL1        0.0000
     64 H           2.2644   -2.8162    0.8166 H       1  UNL1        0.0000
     65 H          -2.1725   -3.1151    1.2974 H       1  UNL1        0.0000
     66 H          -1.8020    1.0470    2.1732 H       1  UNL1        0.0000
     67 H           2.4675    1.6413    1.5394 H       1  UNL1        0.0000
     68 EU          1.3132    2.8471   -1.5283 Eu      1  UNL1        0.0000
@<TRIPOS>BOND
     1     1     2    2
     2     2     3   am
     3     3     4    1
     4     3     5    1
     5     5     6    1
     6     6     7    1
     7     2     8    1
     8     8     9   ar
     9     9    10   ar
    10     8    11   ar
    11    11    12   ar
    12    12    13   ar
    13    10    13   ar
    14    13    14   ar
    15    14    15   ar
    16    15    16   ar
    17    16    17   ar
    18    12    17   ar
    19    17    18   ar
    20    18    19   ar
    21    19    20    1
    22    20    21   ar
    23    21    22   ar
    24    22    23    1
    25    23    24    1
    26    23    25    1
    27    23    26    1
    28    26    27    1
    29    27    28    1
    30    28    29    1
    31    28    30    1
    32    22    31   ar
    33    28    31    1
    34    31    32   ar
    35    32    33   ar
    36    20    33   ar
    37    19    34   ar
    38    34    35   ar
    39    16    35   ar
    40     4    36    1
    41     4    37    1
    42     4    38    1
    43     5    39    1
    44     5    40    1
    45     6    41    1
    46     6    42    1
    47     7    43    1
    48     7    44    1
    49     7    45    1
    50     9    46    1
    51    10    47    1
    52    14    48    1
    53    15    49    1
    54    24    50    1
    55    24    51    1
    56    24    52    1
    57    25    53    1
    58    25    54    1
    59    25    55    1
    60    26    56    1
    61    26    57    1
    62    27    58    1
    63    27    59    1
    64    29    60    1
    65    29    61    1
    66    29    62    1
    67    30    63    1
    68    30    64    1
    69    30    65    1
    70    34    66    1
    71    35    67    1
    72    68     1    1
    73    68    33    1
    74    68    18    1
    75    68    11    1
@<TRIPOS>MOLECULE
*****
 68 75 0 0 0
SMALL
GASTEIGER

@<TRIPOS>ATOM
      1 O          -1.9762    0.2855   -2.2679 O.2     1  UNL1        0.0000
      2 C          -2.2580    0.5297   -1.6797 C.2     1  UNL1        0.0000
      3 N          -2.4133   -1.1003    1.8954 N.am    1  UNL1        0.0000
      4 C          -2.6819   -1.2529    3.1622 C.3     1  UNL1        0.0000
      5 C           0.0751   -3.2115    2.2670 C.3     1  UNL1        0.0000
      6 C           0.9288   -2.3714    1.8781 C.3     1  UNL1        0.0000
      7 C           0.5063   -1.8541   -1.8028 C.3     1  UNL1        0.0000
      8 C           0.5293    2.7198   -1.3986 C.ar    1  UNL1        0.0000
      9 C           1.7570    1.1750   -0.9277 C.ar    1  UNL1        0.0000
     10 C           0.1056   -0.9873   -3.6696 C.ar    1  UNL1        0.0000
     11 N           0.9707    2.9595   -1.8413 N.ar    1  UNL1        0.0000
     12 C           0.9909    1.2959   -2.8303 C.ar    1  UNL1        0.0000
     13 C          -0.0529   -0.9543   -3.5914 C.ar    1  UNL1        0.0000
     14 C           0.7017   -3.6590   -0.8925 C.ar    1  UNL1        0.0000
     15 C           0.7252   -3.3333    0.1801 C.ar    1  UNL1        0.0000
     16 C           2.1106   -1.4178   -0.3206 C.ar    1  UNL1        0.0000
     17 C           3.0511   -0.4556   -0.5455 C.ar    1  UNL1        0.0000
     18 N           2.8017    0.2857    0.5124 N.ar    1  UNL1        0.0000
     19 C           0.2829   -0.3889    1.3206 C.ar    1  UNL1        0.0000
     20 C          -0.7187   -0.2128    1.8260 C.ar    1  UNL1        0.0000
     21 N          -2.9899   -1.4747    0.2286 N.ar    1  UNL1        0.0000
     22 C          -3.1908   -1.0023   -0.5732 C.ar    1  UNL1        0.0000
     23 C          -1.5403   -1.4476   -1.3061 C.3     1  UNL1        0.0000
     24 C          -0.2848    0.4661   -1.1184 C.3     1  UNL1        0.0000
     25 C           0.0477    0.0599   -1.3340 C.3     1  UNL1        0.0000
     26 C          -0.0733    0.3808   -1.1351 C.3     1  UNL1        0.0000
     27 C          -1.8138    0.4868    0.3144 C.3     1  UNL1        0.0000
     28 C          -0.2082    1.6137    0.9526 C.3     1  UNL1        0.0000
     29 C           0.8309    2.2246    0.5695 C.3     1  UNL1        0.0000
     30 C          -0.9847   -2.0532    0.9994 C.3     1  UNL1        0.0000
     31 C          -2.7094    1.9417   -0.3827 C.ar    1  UNL1        0.0000
     32 N          -2.7092    3.1587   -0.1501 N.ar    1  UNL1        0.0000
     33 N          -1.3883    3.0470    0.8882 N.ar    1  UNL1        0.0000
     34 C           0.1897   -0.3369    1.1146 C.ar    1  UNL1        0.0000
     35 C           1.0364   -0.2747    0.6260 C.ar    1  UNL1        0.0000
     36 H          -2.9755   -0.3330    2.5739 H       1  UNL1        0.0000
     37 H          -2.1983   -2.9241    3.0965 H       1  UNL1        0.0000
     38 H          -1.5343   -0.1246    3.5947 H       1  UNL1        0.0000
     39 H           1.8874   -4.7822    0.0536 H       1  UNL1        0.0000
     40 H          -0.7993   -1.8497    2.9522 H       1  UNL1        0.0000
     41 H           2.5941   -1.9987    2.2345 H       1  UNL1        0.0000
     42 H          -1.1213   -3.4933   -0.0571 H       1  UNL1        0.0000
     43 H          -0.6573    0.6953   -3.1905 H       1  UNL1        0.0000
     44 H           2.1437   -0.1323   -2.0423 H       1  UNL1        0.0000
     45 H           0.5113   -2.2830   -2.0519 H       1  UNL1        0.0000
     46 H           1.3544    0.9425    2.1321 H       1  UNL1        0.0000
     47 H          -0.0181   -2.2425   -3.9517 H       1  UNL1        0.0000
     48 H           2.5378   -3.5293   -1.0167 H       1  UNL1        0.0000
     49 H           0.5744   -2.1813    3.6448 H       1  UNL1        0.0000
     50 H          -1.1960   -1.1198   -0.6661 H       1  UNL1        0.0000
     51 H          -1.1960   -1.1198   -0.6661 H       1  UNL1        0.0000
     52 H          -1.0286    2.5404   -2.3602 H       1  UNL1        0.0000
     53 H           2.2263   -2.2182   -2.0716 H       1  UNL1        0.0000
     54 H          -1.0124    2.3914   -0.7435 H       1  UNL1        0.0000
     55 H           0.2760   -1.6544   -0.1539 H       1  UNL1        0.0000
     56 H           3.1344    1.8925   -0.1479 H       1  UNL1        0.0000
     57 H           1.6826   -1.0993   -2.9764 H       1  UNL1        0.0000
     58 H          -3.4482   -0.6929   -2.3611 H       1  UNL1        0.0000
     59 H           1.7033   -0.6051    2.2675 H       1  UNL1        0.0000
     60 H          -2.5458    1.9281    1.3402 H       1  UNL1        0.0000
     61 H           2.7531    1.5676   -2.3108 H       1  UNL1        0.0000
     62 H           2.8170    2.4218   -1.7944 H       1  UNL1        0.0000
     63 H          -0.2202    1.2243    2.5714 H       1  UNL1        0.0000
     64 H           2.2808   -2.8386    0.8320 H       1  UNL1        0.0000
     65 H          -2.1479   -3.0953    1.2948 H       1  UNL1        0.0000
     66 H          -1.7931    1.0411    2.2409 H       1  UNL1        0.0000
     67 H           2.4880    1.6690    1.5095 H       1  UNL1        0.0000
     68 EU          1.2915    2.8336   -1.5921 Eu      1  UNL1        0.0000
@<TRIPOS>BOND
     1     1     2    2
     2     2     3   am
     3     3     4    1
     4     3     5    1
     5     5     6    1
     6     6     7    1
     7     2     8    1
     8     8     9   ar
     9     9    10   ar
    10     8    11   ar
    11    11    12   ar
    12    12    13   ar
    13    10    13   ar
    14    13    14   ar
    15    14    15   ar
    16    15    16   ar
    17    16    17   ar
    18    12    17   ar
    19    17    18   ar
    20    18    19   ar
    21    19    20    1
    22    20    21   ar
    23    21    22   ar
    24    22    23    1
    25    23    24    1
    26    23    25    1
    27    23    26    1
    28    26    27    1
    29    27    28    1
    30    28    29    1
    31    28    30    1
    32    22    31   ar
    33    28    31    1
    34    31    32   ar
    35    32    33   ar
    36    20    33   ar
    37    19    34   ar
    38    34    35   ar
    39    16    35   ar
    40     4    36    1
    41     4    37    1
    42     4    38    1
    43     5    39    1
    44     5    40    1
    45     6    41    1
    46     6    42    1
    47     7    43    1
    48     7    44    1
    49     7    45    1
    50     9    46    1
    51    10    47    1
    52    14    48    1
    53    15    49    1
    54    24    50    1
    55    24    51    1
    56    24    52    1
    57    25    53    1
    58    25    54    1
    59    25    55    1
    60    26    56    1
    61    26    57    1
    62    27    58    1
    63    27    59    1
    64    29    60    1
    65    29    61    1
    66    29    62    1
    67    30    63    1
    68    30    64    1
    69    30    65    1
    70    34    66    1
    71    35    67    1
    72    68     1    1
    73    68    33    1
    74    68    18    1
    75    68    11    1
@<TRIPOS>MOLECULE
*****
 68 75 0 0 0
SMALL
GASTEIGER

@<TRIPOS>ATOM
      1 O          -1.9909    0.3178   -2.2764 O.2     1  UNL1        0.0000
      2 C          -2.2634    0.5581   -1.6775 C.2     1  UNL1        0.0000
      3 N          -2.4236   -1.0904    1.8871 N.am    1  UNL1        0.0000
      4 C          -2.6775   -1.2438    3.1716 C.3     1  UNL1        0.0000
      5 C           0.0300   -3.2345    2.2543 C.3     1  UNL1        0.0000
      6 C           0.9242   -2.3796    1.8710 C.3     1  UNL1        0.0000
      7 C           0.5330   -1.8347   -1.8096 C.3     1  UNL1        0.0000
      8 C           0.5123    2.7075   -1.4205 C.ar    1  UNL1        0.0000
      9 C           1.7381    1.1708   -0.9294 C.ar    1  UNL1        0.0000
     10 C           0.1543   -0.9801   -3.6865 C.ar    1  UNL1        0.0000
     11 N           0.9708    2.9490   -1.8730 N.ar    1  UNL1        0.0000
     12 C           1.0150    1.2705   -2.8489 C.ar    1  UNL1        0.0000
     13 C           0.0233   -0.9523   -3.6248 C.ar    1  UNL1        0.0000
     14 C           0.7247   -3.6559   -0.9351 C.ar    1  UNL1        0.0000
     15 C           0.7342   -3.3169    0.1611 C.ar    1  UNL1        0.0000
     16 C           2.1034   -1.4166   -0.3022 C.ar    1  UNL1        0.0000
     17 C           3.0473   -0.4634   -0.5542 C.ar    1  UNL1        0.0000
     18 N           2.8075    0.2888    0.4981 N.ar    1  UNL1        0.0000
     19 C           0.3094   -0.3863    1.3192 C.ar    1  UNL1        0.0000
     20 C          -0.7218   -0.2097    1.8446 C.ar    1  UNL1        0.0000
     21 N          -2.9936   -1.4575    0.2188 N.ar    1  UNL1        0.0000
     22 C          -3.1822   -0.9717   -0.5484 C.ar    1  UNL1        0.0000
     23 C          -1.5177   -1.4126   -1.2931 C.3     1  UNL1        0.0000
     24 C          -0.2741    0.4000   -1.1578 C.3     1  UNL1        0.0000
     25 C           0.0333    0.0661   -1.3221 C.3     1  UNL1        0.0000
     26 C          -0.0634    0.3429   -1.1553 C.3     1  UNL1        0.0000
     27 C          -1.7740    0.5130    0.3112 C.3     1  UNL1        0.0000
     28 C          -0.2547    1.5911    0.8945 C.3     1  UNL1        0.0000
     29 C           0.8243    2.2493    0.5606 C.3     1  UNL1        0.0000
     30 C          -0.9867   -2.0338    0.9899 C.3     1  UNL1        0.0000
     31 C          -2.7273    1.9198   -0.3279 C.ar    1  UNL1        0.0000
     32 N          -2.7040    3.1582   -0.1278 N.ar    1  UNL1        0.0000
     33 N          -1.3923    3.0609    0.8782 N.ar    1  UNL1        0.0000
     34 C           0.2196   -0.3366    1.1233 C.ar    1  UNL1        0.0000
     35 C           1.0423   -0.2753    0.6490 C.ar    1  UNL1        0.0000
     36 H          -2.9851   -0.3355    2.5809 H       1  UNL1        0.0000
     37 H          -2.2137   -2.8998    3.1056 H       1  UNL1        0.0000
     38 H          -1.5589   -0.1460    3.6124 H       1  UNL1        0.0000
     39 H           1.8632   -4.7804    0.1356 H       1  UNL1        0.0000
     40 H          -0.7916   -1.8779    2.9505 H       1  UNL1        0.0000
     41 H           2.5778   -2.0125    2.2422 H       1  UNL1        0.0000
     42 H          -1.1007   -3.5081   -0.0362 H       1  UNL1        0.0000
     43 H          -0.6513    0.6821   -3.1955 H       1  UNL1        0.0000
     44 H           2.1379   -0.1404   -2.0448 H       1  UNL1        0.0000
     45 H           0.5010   -2.2817   -2.0887 H       1  UNL1        0.0000
     46 H           1.3541    0.9691    2.0970 H       1  UNL1        0.0000
     47 H          -0.0147   -2.2332   -3.9529 H       1  UNL1        0.0000
     48 H           2.5044   -3.5519   -1.0355 H       1  UNL1        0.0000
     49 H           0.5907   -2.2248    3.6328 H       1  UNL1        0.0000
     50 H          -1.2147   -1.1273   -0.6872 H       1  UNL1        0.0000
     51 H          -1.2147   -1.1273   -0.6872 H       1  UNL1        0.0000
     52 H          -1.0468    2.4841   -2.3705 H       1  UNL1        0.0000
     53 H           2.2457   -2.1916   -2.0583 H       1  UNL1        0.0000
     54 H          -1.0195    2.3204   -0.7494 H       1  UNL1        0.0000
     55 H           0.2601   -1.6328   -0.1673 H       1  UNL1        0.0000
     56 H           3.1052    1.9094   -0.1541 H       1  UNL1        0.0000
     57 H           1.7254   -1.1016   -3.0117 H       1  UNL1        0.0000
     58 H          -3.4507   -0.6886   -2.3331 H       1  UNL1        0.0000
     59 H           1.6944   -0.5918    2.3177 H       1  UNL1        0.0000
     60 H          -2.5323    1.9451    1.3917 H       1  UNL1        0.0000
     61 H           2.7670    1.6131   -2.2700 H       1  UNL1        0.0000
     62 H           2.8254    2.4299   -1.7521 H       1  UNL1        0.0000
     63 H          -0.2083    1.2249    2.5867 H       1  UNL1        0.0000
     64 H           2.2881   -2.8494    0.8389 H       1  UNL1        0.0000
     65 H          -2.1363   -3.0840    1.2939 H       1  UNL1        0.0000
     66 H          -1.7881    1.0387    2.2767 H       1  UNL1        0.0000
     67 H           2.5019    1.6830    1.4927 H       1  UNL1        0.0000
     68 EU          1.2812    2.8279   -1.6244 Eu      1  UNL1        0.0000
@<TRIPOS>BOND
     1     1     2    2
     2     2     3   am
     3     3     4    1
     4     3     5    1
     5     5     6    1
     6     6     7    1
     7     2     8    1
     8     8     9   ar
     9     9    10   ar
    10     8    11   ar
    11    11    12   ar
    12    12    13   ar
    13    10    13   ar
    14    13    14   ar
    15    14    15   ar
    16    15    16   ar
    17    16    17   ar
    18    12    17   ar
    19    17    18   ar
    20    18    19   ar
    21    19    20    1
    22    20    21   ar
    23    21    22   ar
    24    22    23    1
    25    23    24    1
    26    23    25    1
    27    23    26    1
    28    26    27    1
    29    27    28    1
    30    28    29    1
    31    28    30    1
    32    22    31   ar
    33    28    31    1
    34    31    32   ar
    35    32    33   ar
    36    20    33   ar
    37    19    34   ar
    38    34    35   ar
    39    16    35   ar
    40     4    36    1
    41     4    37    1
    42     4    38    1
    43     5    39    1
    44     5    40    1
    45     6    41    1
    46     6    42    1
    47     7    43    1
    48     7    44    1
    49     7    45    1
    50     9    46    1
    51    10    47    1
    52    14    48    1
    53    15    49    1
    54    24    50    1
    55    24    51    1
    56    24    52    1
    57    25    53    1
    58    25    54    1
    59    25    55    1
    60    26    56    1
    61    26    57    1
    62    27    58    1
    63    27    59    1
    64    29    60    1
    65    29    61    1
    66    29    62    1
    67    30    63    1
    68    30    64    1
    69    30    65    1
    70    34    66    1
    71    35    67    1
    72    68     1    1
    73    68    33    1
    74    68    18    1
    75    68    11    1
@<TRIPOS>MOLECULE
*****
 68 75 0 0 0
SMALL
GASTEIGER

@<TRIPOS>ATOM
      1 O          -1.9966    0.3315   -2.2793 O.2     1  UNL1        0.0000
      2 C          -2.2651    0.5699   -1.6760 C.2     1  UNL1        0.0000
      3 N          -2.4273   -1.0862    1.8841 N.am    1  UNL1        0.0000
      4 C          -2.6760   -1.2401    3.1752 C.3     1  UNL1        0.0000
      5 C           0.0113   -3.2434    2.2491 C.3     1  UNL1        0.0000
      6 C           0.9220   -2.3831    1.8680 C.3     1  UNL1        0.0000
      7 C           0.5434   -1.8267   -1.8142 C.3     1  UNL1        0.0000
      8 C           0.5049    2.7020   -1.4289 C.ar    1  UNL1        0.0000
      9 C           1.7301    1.1702   -0.9297 C.ar    1  UNL1        0.0000
     10 C           0.1623   -0.9780   -3.6930 C.ar    1  UNL1        0.0000
     11 N           0.9710    2.9448   -1.8859 N.ar    1  UNL1        0.0000
     12 C           1.0247    1.2594   -2.8570 C.ar    1  UNL1        0.0000
     13 C           0.0436   -0.9541   -3.6374 C.ar    1  UNL1        0.0000
     14 C           0.7346   -3.6540   -0.9535 C.ar    1  UNL1        0.0000
     15 C           0.7386   -3.3102    0.1532 C.ar    1  UNL1        0.0000
     16 C           2.1015   -1.4163   -0.2935 C.ar    1  UNL1        0.0000
     17 C           3.0458   -0.4661   -0.5585 C.ar    1  UNL1        0.0000
     18 N           2.8102    0.2900    0.4916 N.ar    1  UNL1        0.0000
     19 C           0.3203   -0.3849    1.3184 C.ar    1  UNL1        0.0000
     20 C          -0.7228   -0.2084    1.8517 C.ar    1  UNL1        0.0000
     21 N          -2.9954   -1.4505    0.2155 N.ar    1  UNL1        0.0000
     22 C          -3.1795   -0.9586   -0.5383 C.ar    1  UNL1        0.0000
     23 C          -1.5089   -1.3987   -1.2890 C.3     1  UNL1        0.0000
     24 C          -0.2706    0.3729   -1.1737 C.3     1  UNL1        0.0000
     25 C           0.0275    0.0678   -1.3181 C.3     1  UNL1        0.0000
     26 C          -0.0597    0.3283   -1.1633 C.3     1  UNL1        0.0000
     27 C          -1.7578    0.5228    0.3100 C.3     1  UNL1        0.0000
     28 C          -0.2746    1.5802    0.8706 C.3     1  UNL1        0.0000
     29 C           0.8219    2.2598    0.5574 C.3     1  UNL1        0.0000
     30 C          -0.9872   -2.0258    0.9858 C.3     1  UNL1        0.0000
     31 C          -2.7344    1.9097   -0.3047 C.ar    1  UNL1        0.0000
     32 N          -2.7016    3.1577   -0.1192 N.ar    1  UNL1        0.0000
     33 N          -1.3922    3.0663    0.8745 N.ar    1  UNL1        0.0000
     34 C           0.2324   -0.3364    1.1276 C.ar    1  UNL1        0.0000
     35 C           1.0453   -0.2757    0.6577 C.ar    1  UNL1        0.0000
     36 H          -2.9892   -0.3365    2.5838 H       1  UNL1        0.0000
     37 H          -2.2204   -2.8897    3.1093 H       1  UNL1        0.0000
     38 H          -1.5688   -0.1548    3.6197 H       1  UNL1        0.0000
     39 H           1.8522   -4.7794    0.1689 H       1  UNL1        0.0000
     40 H          -0.7885   -1.8894    2.9497 H       1  UNL1        0.0000
     41 H           2.5705   -2.0175    2.2454 H       1  UNL1        0.0000
     42 H          -1.0923   -3.5141   -0.0270 H       1  UNL1        0.0000
     43 H          -0.6482    0.6750   -3.1975 H       1  UNL1        0.0000
     44 H           2.1342   -0.1434   -2.0451 H       1  UNL1        0.0000
     45 H           0.4966   -2.2808   -2.1037 H       1  UNL1        0.0000
     46 H           1.3540    0.9807    2.0832 H       1  UNL1        0.0000
     47 H          -0.0127   -2.2293   -3.9538 H       1  UNL1        0.0000
     48 H           2.4907   -3.5611   -1.0432 H       1  UNL1        0.0000
     49 H           0.5969   -2.2433    3.6278 H       1  UNL1        0.0000
     50 H          -1.2226   -1.1310   -0.6965 H       1  UNL1        0.0000
     51 H          -1.2226   -1.1310   -0.6965 H       1  UNL1        0.0000
     52 H          -1.0541    2.4602   -2.3747 H       1  UNL1        0.0000
     53 H           2.2545   -2.1808   -2.0521 H       1  UNL1        0.0000
     54 H          -1.0233    2.2918   -0.7531 H       1  UNL1        0.0000
     55 H           0.2540   -1.6239   -0.1735 H       1  UNL1        0.0000
     56 H           3.0934    1.9160   -0.1557 H       1  UNL1        0.0000
     57 H           1.7468   -1.1038   -3.0251 H       1  UNL1        0.0000
     58 H          -3.4510   -0.6865   -2.3216 H       1  UNL1        0.0000
     59 H           1.6899   -0.5855    2.3384 H       1  UNL1        0.0000
     60 H          -2.5252    1.9532    1.4128 H       1  UNL1        0.0000
     61 H           2.7720    1.6325   -2.2531 H       1  UNL1        0.0000
     62 H           2.8280    2.4341   -1.7349 H       1  UNL1        0.0000
     63 H          -0.2033    1.2249    2.5927 H       1  UNL1        0.0000
     64 H           2.2909   -2.8540    0.8418 H       1  UNL1        0.0000
     65 H          -2.1316   -3.0790    1.2935 H       1  UNL1        0.0000
     66 H          -1.7859    1.0378    2.2917 H       1  UNL1        0.0000
     67 H           2.5081    1.6884    1.4857 H       1  UNL1        0.0000
     68 EU          1.2771    2.8258   -1.6376 Eu      1  UNL1        0.0000
@<TRIPOS>BOND
     1     1     2    2
     2     2     3   am
     3     3     4    1
     4     3     5    1
     5     5     6    1
     6     6     7    1
     7     2     8    1
     8     8     9   ar
     9     9    10   ar
    10     8    11   ar
    11    11    12   ar
    12    12    13   ar
    13    10    13   ar
    14    13    14   ar
    15    14    15   ar
    16    15    16   ar
    17    16    17   ar
    18    12    17   ar
    19    17    18   ar
    20    18    19   ar
    21    19    20    1
    22    20    21   ar
    23    21    22   ar
    24    22    23    1
    25    23    24    1
    26    23    25    1
    27    23    26    1
    28    26    27    1
    29    27    28    1
    30    28    29    1
    31    28    30    1
    32    22    31   ar
    33    28    31    1
    34    31    32   ar
    35    32    33   ar
    36    20    33   ar
    37    19    34   ar
    38    34    35   ar
    39    16    35   ar
    40     4    36    1
    41     4    37    1
    42     4    38    1
    43     5    39    1
    44     5    40    1
    45     6    41    1
    46     6    42    1
    47     7    43    1
    48     7    44    1
    49     7    45    1
    50     9    46    1
    51    10    47    1
    52    14    48    1
    53    15    49    1
    54    24    50    1
    55    24    51    1
    56    24    52    1
    57    25    53    1
    58    25    54    1
    59    25    55    1
    60    26    56    1
    61    26    57    1
    62    27    58    1
    63    27    59    1
    64    29    60    1
    65    29    61    1
    66    29    62    1
    67    30    63    1
    68    30    64    1
    69    30    65    1
    70    34    66    1
    71    35    67    1
    72    68     1    1
    73    68    33    1
    74    68    18    1
    75    68    11    1
@<TRIPOS>MOLECULE
*****
 68 75 0 0 0
SMALL
GASTEIGER

@<TRIPOS>ATOM
      1 O          -2.0021    0.3451   -2.2818 O.2     1  UNL1        0.0000
      2 C          -2.2664    0.5814   -1.6743 C.2     1  UNL1        0.0000
      3 N          -2.4306   -1.0821    1.8815 N.am    1  UNL1        0.0000
      4 C          -2.6748   -1.2364    3.1786 C.3     1  UNL1        0.0000
      5 C          -0.0067   -3.2517    2.2439 C.3     1  UNL1        0.0000
      6 C           0.9198   -2.3865    1.8651 C.3     1  UNL1        0.0000
      7 C           0.5537   -1.8195   -1.8187 C.3     1  UNL1        0.0000
      8 C           0.4977    2.6968   -1.4366 C.ar    1  UNL1        0.0000
      9 C           1.7228    1.1698   -0.9302 C.ar    1  UNL1        0.0000
     10 C           0.1678   -0.9768   -3.6944 C.ar    1  UNL1        0.0000
     11 N           0.9712    2.9409   -1.8982 N.ar    1  UNL1        0.0000
     12 C           1.0331    1.2488   -2.8647 C.ar    1  UNL1        0.0000
     13 C           0.0555   -0.9509   -3.6425 C.ar    1  UNL1        0.0000
     14 C           0.7429   -3.6520   -0.9708 C.ar    1  UNL1        0.0000
     15 C           0.7434   -3.3033    0.1454 C.ar    1  UNL1        0.0000
     16 C           2.1004   -1.4163   -0.2846 C.ar    1  UNL1        0.0000
     17 C           3.0440   -0.4686   -0.5631 C.ar    1  UNL1        0.0000
     18 N           2.8129    0.2913    0.4848 N.ar    1  UNL1        0.0000
     19 C           0.3309   -0.3834    1.3175 C.ar    1  UNL1        0.0000
     20 C          -0.7236   -0.2072    1.8583 C.ar    1  UNL1        0.0000
     21 N          -2.9974   -1.4438    0.2127 N.ar    1  UNL1        0.0000
     22 C          -3.1773   -0.9457   -0.5286 C.ar    1  UNL1        0.0000
     23 C          -1.5008   -1.3854   -1.2856 C.3     1  UNL1        0.0000
     24 C          -0.2677    0.3468   -1.1888 C.3     1  UNL1        0.0000
     25 C           0.0219    0.0691   -1.3145 C.3     1  UNL1        0.0000
     26 C          -0.0564    0.3146   -1.1709 C.3     1  UNL1        0.0000
     27 C          -1.7423    0.5316    0.3087 C.3     1  UNL1        0.0000
     28 C          -0.2943    1.5688    0.8478 C.3     1  UNL1        0.0000
     29 C           0.8198    2.2701    0.5545 C.3     1  UNL1        0.0000
     30 C          -0.9875   -2.0180    0.9818 C.3     1  UNL1        0.0000
     31 C          -2.7413    1.8992   -0.2815 C.ar    1  UNL1        0.0000
     32 N          -2.6990    3.1570   -0.1116 N.ar    1  UNL1        0.0000
     33 N          -1.3911    3.0714    0.8710 N.ar    1  UNL1        0.0000
     34 C           0.2448   -0.3362    1.1318 C.ar    1  UNL1        0.0000
     35 C           1.0485   -0.2763    0.6658 C.ar    1  UNL1        0.0000
     36 H          -2.9931   -0.3374    2.5867 H       1  UNL1        0.0000
     37 H          -2.2269   -2.8800    3.1129 H       1  UNL1        0.0000
     38 H          -1.5783   -0.1634    3.6267 H       1  UNL1        0.0000
     39 H           1.8410   -4.7784    0.2009 H       1  UNL1        0.0000
     40 H          -0.7854   -1.9004    2.9489 H       1  UNL1        0.0000
     41 H           2.5631   -2.0221    2.2487 H       1  UNL1        0.0000
     42 H          -1.0841   -3.5200   -0.0177 H       1  UNL1        0.0000
     43 H          -0.6452    0.6680   -3.1991 H       1  UNL1        0.0000
     44 H           2.1296   -0.1465   -2.0455 H       1  UNL1        0.0000
     45 H           0.4923   -2.2799   -2.1181 H       1  UNL1        0.0000
     46 H           1.3540    0.9922    2.0702 H       1  UNL1        0.0000
     47 H          -0.0105   -2.2255   -3.9548 H       1  UNL1        0.0000
     48 H           2.4776   -3.5697   -1.0509 H       1  UNL1        0.0000
     49 H           0.6023   -2.2616    3.6231 H       1  UNL1        0.0000
     50 H          -1.2302   -1.1349   -0.7059 H       1  UNL1        0.0000
     51 H          -1.2302   -1.1349   -0.7059 H       1  UNL1        0.0000
     52 H          -1.0610    2.4366   -2.3789 H       1  UNL1        0.0000
     53 H           2.2633   -2.1703   -2.0455 H       1  UNL1        0.0000
     54 H          -1.0276    2.2649   -0.7578 H       1  UNL1        0.0000
     55 H           0.2484   -1.6152   -0.1801 H       1  UNL1        0.0000
     56 H           3.0820    1.9221   -0.1567 H       1  UNL1        0.0000
     57 H           1.7658   -1.1060   -3.0390 H       1  UNL1        0.0000
     58 H          -3.4508   -0.6843   -2.3104 H       1  UNL1        0.0000
     59 H           1.6851   -0.5789    2.3585 H       1  UNL1        0.0000
     60 H          -2.5174    1.9618    1.4333 H       1  UNL1        0.0000
     61 H           2.7764    1.6516   -2.2367 H       1  UNL1        0.0000
     62 H           2.8300    2.4387   -1.7185 H       1  UNL1        0.0000
     63 H          -0.1983    1.2247    2.5985 H       1  UNL1        0.0000
     64 H           2.2937   -2.8585    0.8447 H       1  UNL1        0.0000
     65 H          -2.1272   -3.0739    1.2932 H       1  UNL1        0.0000
     66 H          -1.7838    1.0368    2.3063 H       1  UNL1        0.0000
     67 H           2.5144    1.6933    1.4790 H       1  UNL1        0.0000
     68 EU          1.2732    2.8238   -1.6503 Eu      1  UNL1        0.0000
@<TRIPOS>BOND
     1     1     2    2
     2     2     3   am
     3     3     4    1
     4     3     5    1
     5     5     6    1
     6     6     7    1
     7     2     8    1
     8     8     9   ar
     9     9    10   ar
    10     8    11   ar
    11    11    12   ar
    12    12    13   ar
    13    10    13   ar
    14    13    14   ar
    15    14    15   ar
    16    15    16   ar
    17    16    17   ar
    18    12    17   ar
    19    17    18   ar
    20    18    19   ar
    21    19    20    1
    22    20    21   ar
    23    21    22   ar
    24    22    23    1
    25    23    24    1
    26    23    25    1
    27    23    26    1
    28    26    27    1
    29    27    28    1
    30    28    29    1
    31    28    30    1
    32    22    31   ar
    33    28    31    1
    34    31    32   ar
    35    32    33   ar
    36    20    33   ar
    37    19    34   ar
    38    34    35   ar
    39    16    35   ar
    40     4    36    1
    41     4    37    1
    42     4    38    1
    43     5    39    1
    44     5    40    1
    45     6    41    1
    46     6    42    1
    47     7    43    1
    48     7    44    1
    49     7    45    1
    50     9    46    1
    51    10    47    1
    52    14    48    1
    53    15    49    1
    54    24    50    1
    55    24    51    1
    56    24    52    1
    57    25    53    1
    58    25    54    1
    59    25    55    1
    60    26    56    1
    61    26    57    1
    62    27    58    1
    63    27    59    1
    64    29    60    1
    65    29    61    1
    66    29    62    1
    67    30    63    1
    68    30    64    1
    69    30    65    1
    70    34    66    1
    71    35    67    1
    72    68     1    1
    73    68    33    1
    74    68    18    1
    75    68    11    1
@<TRIPOS>MOLECULE
*****
 68 75 0 0 0
SMALL
GASTEIGER

@<TRIPOS>ATOM
      1 O          -2.0029    0.3474   -2.2822 O.2     1  UNL1        0.0000
      2 C          -2.2666    0.5833   -1.6740 C.2     1  UNL1        0.0000
      3 N          -2.4311   -1.0814    1.8811 N.am    1  UNL1        0.0000
      4 C          -2.6746   -1.2358    3.1792 C.3     1  UNL1        0.0000
      5 C          -0.0097   -3.2531    2.2430 C.3     1  UNL1        0.0000
      6 C           0.9195   -2.3871    1.8646 C.3     1  UNL1        0.0000
      7 C           0.5555   -1.8184   -1.8193 C.3     1  UNL1        0.0000
      8 C           0.4965    2.6959   -1.4378 C.ar    1  UNL1        0.0000
      9 C           1.7217    1.1697   -0.9304 C.ar    1  UNL1        0.0000
     10 C           0.1691   -0.9744   -3.6950 C.ar    1  UNL1        0.0000
     11 N           0.9712    2.9403   -1.9002 N.ar    1  UNL1        0.0000
     12 C           1.0342    1.2472   -2.8657 C.ar    1  UNL1        0.0000
     13 C           0.0599   -0.9507   -3.6419 C.ar    1  UNL1        0.0000
     14 C           0.7446   -3.6518   -0.9736 C.ar    1  UNL1        0.0000
     15 C           0.7442   -3.3021    0.1441 C.ar    1  UNL1        0.0000
     16 C           2.1003   -1.4163   -0.2832 C.ar    1  UNL1        0.0000
     17 C           3.0437   -0.4690   -0.5639 C.ar    1  UNL1        0.0000
     18 N           2.8133    0.2916    0.4837 N.ar    1  UNL1        0.0000
     19 C           0.3327   -0.3832    1.3174 C.ar    1  UNL1        0.0000
     20 C          -0.7236   -0.2070    1.8594 C.ar    1  UNL1        0.0000
     21 N          -2.9978   -1.4427    0.2122 N.ar    1  UNL1        0.0000
     22 C          -3.1770   -0.9436   -0.5270 C.ar    1  UNL1        0.0000
     23 C          -1.4994   -1.3832   -1.2851 C.3     1  UNL1        0.0000
     24 C          -0.2672    0.3425   -1.1913 C.3     1  UNL1        0.0000
     25 C           0.0211    0.0693   -1.3139 C.3     1  UNL1        0.0000
     26 C          -0.0559    0.3124   -1.1721 C.3     1  UNL1        0.0000
     27 C          -1.7397    0.5329    0.3086 C.3     1  UNL1        0.0000
     28 C          -0.2975    1.5668    0.8441 C.3     1  UNL1        0.0000
     29 C           0.8194    2.2718    0.5541 C.3     1  UNL1        0.0000
     30 C          -0.9876   -2.0167    0.9811 C.3     1  UNL1        0.0000
     31 C          -2.7424    1.8973   -0.2776 C.ar    1  UNL1        0.0000
     32 N          -2.6986    3.1569   -0.1104 N.ar    1  UNL1        0.0000
     33 N          -1.3908    3.0722    0.8704 N.ar    1  UNL1        0.0000
     34 C           0.2469   -0.3362    1.1325 C.ar    1  UNL1        0.0000
     35 C           1.0490   -0.2764    0.6671 C.ar    1  UNL1        0.0000
     36 H          -2.9938   -0.3376    2.5871 H       1  UNL1        0.0000
     37 H          -2.2280   -2.8784    3.1135 H       1  UNL1        0.0000
     38 H          -1.5799   -0.1649    3.6278 H       1  UNL1        0.0000
     39 H           1.8391   -4.7782    0.2062 H       1  UNL1        0.0000
     40 H          -0.7849   -1.9022    2.9488 H       1  UNL1        0.0000
     41 H           2.5619   -2.0229    2.2493 H       1  UNL1        0.0000
     42 H          -1.0828   -3.5210   -0.0162 H       1  UNL1        0.0000
     43 H          -0.6447    0.6669   -3.1993 H       1  UNL1        0.0000
     44 H           2.1287   -0.1471   -2.0456 H       1  UNL1        0.0000
     45 H           0.4916   -2.2797   -2.1204 H       1  UNL1        0.0000
     46 H           1.3539    0.9942    2.0681 H       1  UNL1        0.0000
     47 H          -0.0101   -2.2248   -3.9550 H       1  UNL1        0.0000
     48 H           2.4754   -3.5711   -1.0523 H       1  UNL1        0.0000
     49 H           0.6032   -2.2646    3.6223 H       1  UNL1        0.0000
     50 H          -1.2315   -1.1355   -0.7075 H       1  UNL1        0.0000
     51 H          -1.2315   -1.1356   -0.7075 H       1  UNL1        0.0000
     52 H          -1.0622    2.4327   -2.3796 H       1  UNL1        0.0000
     53 H           2.2648   -2.1686   -2.0444 H       1  UNL1        0.0000
     54 H          -1.0284    2.2605   -0.7587 H       1  UNL1        0.0000
     55 H           0.2475   -1.6138   -0.1812 H       1  UNL1        0.0000
     56 H           3.0801    1.9231   -0.1568 H       1  UNL1        0.0000
     57 H           1.7689   -1.1063   -3.0414 H       1  UNL1        0.0000
     58 H          -3.4507   -0.6840   -2.3086 H       1  UNL1        0.0000
     59 H           1.6843   -0.5777    2.3619 H       1  UNL1        0.0000
     60 H          -2.5160    1.9633    1.4366 H       1  UNL1        0.0000
     61 H           2.7771    1.6548   -2.2340 H       1  UNL1        0.0000
     62 H           2.8302    2.4395   -1.7158 H       1  UNL1        0.0000
     63 H          -0.1975    1.2247    2.5994 H       1  UNL1        0.0000
     64 H           2.2942   -2.8592    0.8452 H       1  UNL1        0.0000
     65 H          -2.1265   -3.0731    1.2931 H       1  UNL1        0.0000
     66 H          -1.7834    1.0366    2.3087 H       1  UNL1        0.0000
     67 H           2.5154    1.6941    1.4779 H       1  UNL1        0.0000
     68 EU          1.2725    2.8235   -1.6524 Eu      1  UNL1        0.0000
@<TRIPOS>BOND
     1     1     2    2
     2     2     3   am
     3     3     4    1
     4     3     5    1
     5     5     6    1
     6     6     7    1
     7     2     8    1
     8     8     9   ar
     9     9    10   ar
    10     8    11   ar
    11    11    12   ar
    12    12    13   ar
    13    10    13   ar
    14    13    14   ar
    15    14    15   ar
    16    15    16   ar
    17    16    17   ar
    18    12    17   ar
    19    17    18   ar
    20    18    19   ar
    21    19    20    1
    22    20    21   ar
    23    21    22   ar
    24    22    23    1
    25    23    24    1
    26    23    25    1
    27    23    26    1
    28    26    27    1
    29    27    28    1
    30    28    29    1
    31    28    30    1
    32    22    31   ar
    33    28    31    1
    34    31    32   ar
    35    32    33   ar
    36    20    33   ar
    37    19    34   ar
    38    34    35   ar
    39    16    35   ar
    40     4    36    1
    41     4    37    1
    42     4    38    1
    43     5    39    1
    44     5    40    1
    45     6    41    1
    46     6    42    1
    47     7    43    1
    48     7    44    1
    49     7    45    1
    50     9    46    1
    51    10    47    1
    52    14    48    1
    53    15    49    1
    54    24    50    1
    55    24    51    1
    56    24    52    1
    57    25    53    1
    58    25    54    1
    59    25    55    1
    60    26    56    1
    61    26    57    1
    62    27    58    1
    63    27    59    1
    64    29    60    1
    65    29    61    1
    66    29    62    1
    67    30    63    1
    68    30    64    1
    69    30    65    1
    70    34    66    1
    71    35    67    1
    72    68     1    1
    73    68    33    1
    74    68    18    1
    75    68    11    1
@<TRIPOS>MOLECULE
*****
 68 75 0 0 0
SMALL
GASTEIGER

@<TRIPOS>ATOM
      1 O          -2.0044    0.3512   -2.2828 O.2     1  UNL1        0.0000
      2 C          -2.2669    0.5865   -1.6735 C.2     1  UNL1        0.0000
      3 N          -2.4319   -1.0803    1.8804 N.am    1  UNL1        0.0000
      4 C          -2.6744   -1.2348    3.1801 C.3     1  UNL1        0.0000
      5 C          -0.0146   -3.2552    2.2416 C.3     1  UNL1        0.0000
      6 C           0.9188   -2.3880    1.8638 C.3     1  UNL1        0.0000
      7 C           0.5584   -1.8167   -1.8204 C.3     1  UNL1        0.0000
      8 C           0.4946    2.6945   -1.4397 C.ar    1  UNL1        0.0000
      9 C           1.7197    1.1696   -0.9305 C.ar    1  UNL1        0.0000
     10 C           0.1715   -0.9749   -3.6935 C.ar    1  UNL1        0.0000
     11 N           0.9712    2.9392   -1.9034 N.ar    1  UNL1        0.0000
     12 C           1.0364    1.2439   -2.8679 C.ar    1  UNL1        0.0000
     13 C           0.0642   -0.9506   -3.6427 C.ar    1  UNL1        0.0000
     14 C           0.7467   -3.6516   -0.9776 C.ar    1  UNL1        0.0000
     15 C           0.7456   -3.2998    0.1418 C.ar    1  UNL1        0.0000
     16 C           2.1003   -1.4164   -0.2807 C.ar    1  UNL1        0.0000
     17 C           3.0432   -0.4696   -0.5652 C.ar    1  UNL1        0.0000
     18 N           2.8141    0.2919    0.4817 N.ar    1  UNL1        0.0000
     19 C           0.3355   -0.3827    1.3171 C.ar    1  UNL1        0.0000
     20 C          -0.7238   -0.2066    1.8611 C.ar    1  UNL1        0.0000
     21 N          -2.9983   -1.4409    0.2116 N.ar    1  UNL1        0.0000
     22 C          -3.1765   -0.9401   -0.5244 C.ar    1  UNL1        0.0000
     23 C          -1.4973   -1.3797   -1.2844 C.3     1  UNL1        0.0000
     24 C          -0.2666    0.3355   -1.1953 C.3     1  UNL1        0.0000
     25 C           0.0196    0.0695   -1.3129 C.3     1  UNL1        0.0000
     26 C          -0.0550    0.3089   -1.1741 C.3     1  UNL1        0.0000
     27 C          -1.7355    0.5352    0.3082 C.3     1  UNL1        0.0000
     28 C          -0.3029    1.5636    0.8380 C.3     1  UNL1        0.0000
     29 C           0.8189    2.2747    0.5533 C.3     1  UNL1        0.0000
     30 C          -0.9876   -2.0146    0.9800 C.3     1  UNL1        0.0000
     31 C          -2.7443    1.8943   -0.2712 C.ar    1  UNL1        0.0000
     32 N          -2.6978    3.1566   -0.1085 N.ar    1  UNL1        0.0000
     33 N          -1.3903    3.0736    0.8695 N.ar    1  UNL1        0.0000
     34 C           0.2503   -0.3361    1.1336 C.ar    1  UNL1        0.0000
     35 C           1.0500   -0.2766    0.6692 C.ar    1  UNL1        0.0000
     36 H          -2.9949   -0.3378    2.5879 H       1  UNL1        0.0000
     37 H          -2.2298   -2.8757    3.1145 H       1  UNL1        0.0000
     38 H          -1.5825   -0.1672    3.6297 H       1  UNL1        0.0000
     39 H           1.8360   -4.7779    0.2148 H       1  UNL1        0.0000
     40 H          -0.7841   -1.9051    2.9486 H       1  UNL1        0.0000
     41 H           2.5598   -2.0240    2.2502 H       1  UNL1        0.0000
     42 H          -1.0806   -3.5226   -0.0136 H       1  UNL1        0.0000
     43 H          -0.6440    0.6652   -3.1997 H       1  UNL1        0.0000
     44 H           2.1272   -0.1481   -2.0457 H       1  UNL1        0.0000
     45 H           0.4904   -2.2795   -2.1243 H       1  UNL1        0.0000
     46 H           1.3539    0.9974    2.0646 H       1  UNL1        0.0000
     47 H          -0.0095   -2.2238   -3.9554 H       1  UNL1        0.0000
     48 H           2.4718   -3.5735   -1.0545 H       1  UNL1        0.0000
     49 H           0.6046   -2.2698    3.6210 H       1  UNL1        0.0000
     50 H          -1.2335   -1.1367   -0.7101 H       1  UNL1        0.0000
     51 H          -1.2335   -1.1367   -0.7101 H       1  UNL1        0.0000
     52 H          -1.0640    2.4262   -2.3808 H       1  UNL1        0.0000
     53 H           2.2673   -2.1657   -2.0426 H       1  UNL1        0.0000
     54 H          -1.0298    2.2534   -0.7602 H       1  UNL1        0.0000
     55 H           0.2460   -1.6113   -0.1830 H       1  UNL1        0.0000
     56 H           3.0771    1.9247   -0.1569 H       1  UNL1        0.0000
     57 H           1.7740   -1.1069   -3.0452 H       1  UNL1        0.0000
     58 H          -3.4505   -0.6833   -2.3056 H       1  UNL1        0.0000
     59 H           1.6829   -0.5758    2.3673 H       1  UNL1        0.0000
     60 H          -2.5137    1.9658    1.4422 H       1  UNL1        0.0000
     61 H           2.7782    1.6601   -2.2295 H       1  UNL1        0.0000
     62 H           2.8307    2.4408   -1.7114 H       1  UNL1        0.0000
     63 H          -0.1961    1.2246    2.6009 H       1  UNL1        0.0000
     64 H           2.2949   -2.8604    0.8461 H       1  UNL1        0.0000
     65 H          -2.1253   -3.0717    1.2931 H       1  UNL1        0.0000
     66 H          -1.7828    1.0363    2.3126 H       1  UNL1        0.0000
     67 H           2.5172    1.6954    1.4760 H       1  UNL1        0.0000
     68 EU          1.2715    2.8230   -1.6559 Eu      1  UNL1        0.0000
@<TRIPOS>BOND
     1     1     2    2
     2     2     3   am
     3     3     4    1
     4     3     5    1
     5     5     6    1
     6     6     7    1
     7     2     8    1
     8     8     9   ar
     9     9    10   ar
    10     8    11   ar
    11    11    12   ar
    12    12    13   ar
    13    10    13   ar
    14    13    14   ar
    15    14    15   ar
    16    15    16   ar
    17    16    17   ar
    18    12    17   ar
    19    17    18   ar
    20    18    19   ar
    21    19    20    1
    22    20    21   ar
    23    21    22   ar
    24    22    23    1
    25    23    24    1
    26    23    25    1
    27    23    26    1
    28    26    27    1
    29    27    28    1
    30    28    29    1
    31    28    30    1
    32    22    31   ar
    33    28    31    1
    34    31    32   ar
    35    32    33   ar
    36    20    33   ar
    37    19    34   ar
    38    34    35   ar
    39    16    35   ar
    40     4    36    1
    41     4    37    1
    42     4    38    1
    43     5    39    1
    44     5    40    1
    45     6    41    1
    46     6    42    1
    47     7    43    1
    48     7    44    1
    49     7    45    1
    50     9    46    1
    51    10    47    1
    52    14    48    1
    53    15    49    1
    54    24    50    1
    55    24    51    1
    56    24    52    1
    57    25    53    1
    58    25    54    1
    59    25    55    1
    60    26    56    1
    61    26    57    1
    62    27    58    1
    63    27    59    1
    64    29    60    1
    65    29    61    1
    66    29    62    1
    67    30    63    1
    68    30    64    1
    69    30    65    1
    70    34    66    1
    71    35    67    1
    72    68     1    1
    73    68    33    1
    74    68    18    1
    75    68    11    1
@<TRIPOS>MOLECULE
*****
 68 75 0 0 0
SMALL
GASTEIGER

@<TRIPOS>ATOM
      1 O          -2.0062    0.3561   -2.2836 O.2     1  UNL1        0.0000
      2 C          -2.2673    0.5906   -1.6728 C.2     1  UNL1        0.0000
      3 N          -2.4329   -1.0788    1.8796 N.am    1  UNL1        0.0000
      4 C          -2.6740   -1.2335    3.1812 C.3     1  UNL1        0.0000
      5 C          -0.0209   -3.2580    2.2398 C.3     1  UNL1        0.0000
      6 C           0.9180   -2.3893    1.8628 C.3     1  UNL1        0.0000
      7 C           0.5623   -1.8146   -1.8216 C.3     1  UNL1        0.0000
      8 C           0.4920    2.6927   -1.4422 C.ar    1  UNL1        0.0000
      9 C           1.7167    1.1695   -0.9309 C.ar    1  UNL1        0.0000
     10 C           0.1753   -0.9718   -3.6945 C.ar    1  UNL1        0.0000
     11 N           0.9711    2.9379   -1.9077 N.ar    1  UNL1        0.0000
     12 C           1.0388    1.2401   -2.8703 C.ar    1  UNL1        0.0000
     13 C           0.0724   -0.9487   -3.6469 C.ar    1  UNL1        0.0000
     14 C           0.7496   -3.6516   -0.9828 C.ar    1  UNL1        0.0000
     15 C           0.7473   -3.2965    0.1387 C.ar    1  UNL1        0.0000
     16 C           2.1003   -1.4167   -0.2776 C.ar    1  UNL1        0.0000
     17 C           3.0424   -0.4703   -0.5669 C.ar    1  UNL1        0.0000
     18 N           2.8151    0.2924    0.4792 N.ar    1  UNL1        0.0000
     19 C           0.3393   -0.3822    1.3167 C.ar    1  UNL1        0.0000
     20 C          -0.7239   -0.2062    1.8634 C.ar    1  UNL1        0.0000
     21 N          -2.9991   -1.4386    0.2107 N.ar    1  UNL1        0.0000
     22 C          -3.1759   -0.9354   -0.5211 C.ar    1  UNL1        0.0000
     23 C          -1.4945   -1.3751   -1.2834 C.3     1  UNL1        0.0000
     24 C          -0.2657    0.3265   -1.2005 C.3     1  UNL1        0.0000
     25 C           0.0178    0.0698   -1.3117 C.3     1  UNL1        0.0000
     26 C          -0.0539    0.3043   -1.1767 C.3     1  UNL1        0.0000
     27 C          -1.7301    0.5380    0.3079 C.3     1  UNL1        0.0000
     28 C          -0.3100    1.5592    0.8302 C.3     1  UNL1        0.0000
     29 C           0.8182    2.2784    0.5524 C.3     1  UNL1        0.0000
     30 C          -0.9876   -2.0118    0.9785 C.3     1  UNL1        0.0000
     31 C          -2.7468    1.8902   -0.2626 C.ar    1  UNL1        0.0000
     32 N          -2.6967    3.1563   -0.1061 N.ar    1  UNL1        0.0000
     33 N          -1.3894    3.0753    0.8684 N.ar    1  UNL1        0.0000
     34 C           0.2548   -0.3361    1.1351 C.ar    1  UNL1        0.0000
     35 C           1.0512   -0.2768    0.6719 C.ar    1  UNL1        0.0000
     36 H          -2.9963   -0.3381    2.5889 H       1  UNL1        0.0000
     37 H          -2.2322   -2.8723    3.1157 H       1  UNL1        0.0000
     38 H          -1.5858   -0.1703    3.6321 H       1  UNL1        0.0000
     39 H           1.8318   -4.7775    0.2261 H       1  UNL1        0.0000
     40 H          -0.7831   -1.9090    2.9483 H       1  UNL1        0.0000
     41 H           2.5571   -2.0255    2.2514 H       1  UNL1        0.0000
     42 H          -1.0777   -3.5247   -0.0101 H       1  UNL1        0.0000
     43 H          -0.6431    0.6629   -3.2002 H       1  UNL1        0.0000
     44 H           2.1252   -0.1494   -2.0459 H       1  UNL1        0.0000
     45 H           0.4889   -2.2792   -2.1292 H       1  UNL1        0.0000
     46 H           1.3539    1.0016    2.0601 H       1  UNL1        0.0000
     47 H          -0.0087   -2.2224   -3.9558 H       1  UNL1        0.0000
     48 H           2.4672   -3.5765   -1.0574 H       1  UNL1        0.0000
     49 H           0.6063   -2.2766    3.6194 H       1  UNL1        0.0000
     50 H          -1.2362   -1.1382   -0.7136 H       1  UNL1        0.0000
     51 H          -1.2362   -1.1382   -0.7136 H       1  UNL1        0.0000
     52 H          -1.0663    2.4177   -2.3823 H       1  UNL1        0.0000
     53 H           2.2706   -2.1619   -2.0402 H       1  UNL1        0.0000
     54 H          -1.0317    2.2442   -0.7624 H       1  UNL1        0.0000
     55 H           0.2441   -1.6081   -0.1854 H       1  UNL1        0.0000
     56 H           3.0731    1.9267   -0.1570 H       1  UNL1        0.0000
     57 H           1.7806   -1.1077   -3.0503 H       1  UNL1        0.0000
     58 H          -3.4503   -0.6825   -2.3017 H       1  UNL1        0.0000
     59 H           1.6810   -0.5733    2.3745 H       1  UNL1        0.0000
     60 H          -2.5105    1.9691    1.4495 H       1  UNL1        0.0000
     61 H           2.7796    1.6670   -2.2237 H       1  UNL1        0.0000
     62 H           2.8312    2.4427   -1.7058 H       1  UNL1        0.0000
     63 H          -0.1944    1.2245    2.6029 H       1  UNL1        0.0000
     64 H           2.2959   -2.8621    0.8472 H       1  UNL1        0.0000
     65 H          -2.1238   -3.0698    1.2930 H       1  UNL1        0.0000
     66 H          -1.7821    1.0360    2.3178 H       1  UNL1        0.0000
     67 H           2.5194    1.6970    1.4737 H       1  UNL1        0.0000
     68 EU          1.2701    2.8223   -1.6604 Eu      1  UNL1        0.0000
@<TRIPOS>BOND
     1     1     2    2
     2     2     3   am
     3     3     4    1
     4     3     5    1
     5     5     6    1
     6     6     7    1
     7     2     8    1
     8     8     9   ar
     9     9    10   ar
    10     8    11   ar
    11    11    12   ar
    12    12    13   ar
    13    10    13   ar
    14    13    14   ar
    15    14    15   ar
    16    15    16   ar
    17    16    17   ar
    18    12    17   ar
    19    17    18   ar
    20    18    19   ar
    21    19    20    1
    22    20    21   ar
    23    21    22   ar
    24    22    23    1
    25    23    24    1
    26    23    25    1
    27    23    26    1
    28    26    27    1
    29    27    28    1
    30    28    29    1
    31    28    30    1
    32    22    31   ar
    33    28    31    1
    34    31    32   ar
    35    32    33   ar
    36    20    33   ar
    37    19    34   ar
    38    34    35   ar
    39    16    35   ar
    40     4    36    1
    41     4    37    1
    42     4    38    1
    43     5    39    1
    44     5    40    1
    45     6    41    1
    46     6    42    1
    47     7    43    1
    48     7    44    1
    49     7    45    1
    50     9    46    1
    51    10    47    1
    52    14    48    1
    53    15    49    1
    54    24    50    1
    55    24    51    1
    56    24    52    1
    57    25    53    1
    58    25    54    1
    59    25    55    1
    60    26    56    1
    61    26    57    1
    62    27    58    1
    63    27    59    1
    64    29    60    1
    65    29    61    1
    66    29    62    1
    67    30    63    1
    68    30    64    1
    69    30    65    1
    70    34    66    1
    71    35    67    1
    72    68     1    1
    73    68    33    1
    74    68    18    1
    75    68    11    1
@<TRIPOS>MOLECULE
*****
 68 75 0 0 0
SMALL
GASTEIGER

@<TRIPOS>ATOM
      1 O          -2.0083    0.3617   -2.2844 O.2     1  UNL1        0.0000
      2 C          -2.2677    0.5954   -1.6718 C.2     1  UNL1        0.0000
      3 N          -2.4341   -1.0772    1.8787 N.am    1  UNL1        0.0000
      4 C          -2.6737   -1.2320    3.1825 C.3     1  UNL1        0.0000
      5 C          -0.0283   -3.2612    2.2376 C.3     1  UNL1        0.0000
      6 C           0.9170   -2.3907    1.8616 C.3     1  UNL1        0.0000
      7 C           0.5667   -1.8124   -1.8231 C.3     1  UNL1        0.0000
      8 C           0.4890    2.6906   -1.4451 C.ar    1  UNL1        0.0000
      9 C           1.7136    1.1695   -0.9312 C.ar    1  UNL1        0.0000
     10 C           0.1893   -0.9703   -3.6952 C.ar    1  UNL1        0.0000
     11 N           0.9711    2.9363   -1.9126 N.ar    1  UNL1        0.0000
     12 C           1.0420    1.2355   -2.8733 C.ar    1  UNL1        0.0000
     13 C           0.0889   -0.9488   -3.6503 C.ar    1  UNL1        0.0000
     14 C           0.7530   -3.6518   -0.9888 C.ar    1  UNL1        0.0000
     15 C           0.7491   -3.2922    0.1350 C.ar    1  UNL1        0.0000
     16 C           2.1005   -1.4170   -0.2739 C.ar    1  UNL1        0.0000
     17 C           3.0416   -0.4710   -0.5688 C.ar    1  UNL1        0.0000
     18 N           2.8162    0.2929    0.4762 N.ar    1  UNL1        0.0000
     19 C           0.3437   -0.3815    1.3163 C.ar    1  UNL1        0.0000
     20 C          -0.7240   -0.2057    1.8660 C.ar    1  UNL1        0.0000
     21 N          -3.0000   -1.4359    0.2098 N.ar    1  UNL1        0.0000
     22 C          -3.1752   -0.9301   -0.5173 C.ar    1  UNL1        0.0000
     23 C          -1.4914   -1.3698   -1.2824 C.3     1  UNL1        0.0000
     24 C          -0.2649    0.3161   -1.2065 C.3     1  UNL1        0.0000
     25 C           0.0156    0.0699   -1.3104 C.3     1  UNL1        0.0000
     26 C          -0.0528    0.2990   -1.1796 C.3     1  UNL1        0.0000
     27 C          -1.7239    0.5411    0.3074 C.3     1  UNL1        0.0000
     28 C          -0.3182    1.5541    0.8212 C.3     1  UNL1        0.0000
     29 C           0.8174    2.2827    0.5514 C.3     1  UNL1        0.0000
     30 C          -0.9876   -2.0085    0.9768 C.3     1  UNL1        0.0000
     31 C          -2.7497    1.8854   -0.2526 C.ar    1  UNL1        0.0000
     32 N          -2.6953    3.1558   -0.1035 N.ar    1  UNL1        0.0000
     33 N          -1.3882    3.0772    0.8670 N.ar    1  UNL1        0.0000
     34 C           0.2600   -0.3360    1.1368 C.ar    1  UNL1        0.0000
     35 C           1.0527   -0.2772    0.6750 C.ar    1  UNL1        0.0000
     36 H          -2.9979   -0.3384    2.5901 H       1  UNL1        0.0000
     37 H          -2.2350   -2.8683    3.1172 H       1  UNL1        0.0000
     38 H          -1.5896   -0.1738    3.6349 H       1  UNL1        0.0000
     39 H           1.8269   -4.7770    0.2390 H       1  UNL1        0.0000
     40 H          -0.7819   -1.9134    2.9479 H       1  UNL1        0.0000
     41 H           2.5539   -2.0272    2.2528 H       1  UNL1        0.0000
     42 H          -1.0743   -3.5271   -0.0061 H       1  UNL1        0.0000
     43 H          -0.6421    0.6602   -3.2007 H       1  UNL1        0.0000
     44 H           2.1227   -0.1510   -2.0461 H       1  UNL1        0.0000
     45 H           0.4871   -2.2789   -2.1348 H       1  UNL1        0.0000
     46 H           1.3538    1.0066    2.0550 H       1  UNL1        0.0000
     47 H          -0.0076   -2.2209   -3.9564 H       1  UNL1        0.0000
     48 H           2.4619   -3.5799   -1.0608 H       1  UNL1        0.0000
     49 H           0.6084   -2.2846    3.6176 H       1  UNL1        0.0000
     50 H          -1.2394   -1.1400   -0.7177 H       1  UNL1        0.0000
     51 H          -1.2394   -1.1400   -0.7177 H       1  UNL1        0.0000
     52 H          -1.0690    2.4079   -2.3841 H       1  UNL1        0.0000
     53 H           2.2744   -2.1576   -2.0374 H       1  UNL1        0.0000
     54 H          -1.0340    2.2339   -0.7652 H       1  UNL1        0.0000
     55 H           0.2420   -1.6044   -0.1882 H       1  UNL1        0.0000
     56 H           3.0685    1.9291   -0.1570 H       1  UNL1        0.0000
     57 H           1.7891   -1.1087   -3.0557 H       1  UNL1        0.0000
     58 H          -3.4499   -0.6814   -2.2972 H       1  UNL1        0.0000
     59 H           1.6788   -0.5703    2.3827 H       1  UNL1        0.0000
     60 H          -2.5068    1.9731    1.4580 H       1  UNL1        0.0000
     61 H           2.7811    1.6750   -2.2170 H       1  UNL1        0.0000
     62 H           2.8317    2.4449   -1.6994 H       1  UNL1        0.0000
     63 H          -0.1923    1.2244    2.6052 H       1  UNL1        0.0000
     64 H           2.2971   -2.8639    0.8485 H       1  UNL1        0.0000
     65 H          -2.1220   -3.0677    1.2928 H       1  UNL1        0.0000
     66 H          -1.7812    1.0355    2.3238 H       1  UNL1        0.0000
     67 H           2.5221    1.6989    1.4710 H       1  UNL1        0.0000
     68 EU          1.2686    2.8216   -1.6655 Eu      1  UNL1        0.0000
@<TRIPOS>BOND
     1     1     2    2
     2     2     3   am
     3     3     4    1
     4     3     5    1
     5     5     6    1
     6     6     7    1
     7     2     8    1
     8     8     9   ar
     9     9    10   ar
    10     8    11   ar
    11    11    12   ar
    12    12    13   ar
    13    10    13   ar
    14    13    14   ar
    15    14    15   ar
    16    15    16   ar
    17    16    17   ar
    18    12    17   ar
    19    17    18   ar
    20    18    19   ar
    21    19    20    1
    22    20    21   ar
    23    21    22   ar
    24    22    23    1
    25    23    24    1
    26    23    25    1
    27    23    26    1
    28    26    27    1
    29    27    28    1
    30    28    29    1
    31    28    30    1
    32    22    31   ar
    33    28    31    1
    34    31    32   ar
    35    32    33   ar
    36    20    33   ar
    37    19    34   ar
    38    34    35   ar
    39    16    35   ar
    40     4    36    1
    41     4    37    1
    42     4    38    1
    43     5    39    1
    44     5    40    1
    45     6    41    1
    46     6    42    1
    47     7    43    1
    48     7    44    1
    49     7    45    1
    50     9    46    1
    51    10    47    1
    52    14    48    1
    53    15    49    1
    54    24    50    1
    55    24    51    1
    56    24    52    1
    57    25    53    1
    58    25    54    1
    59    25    55    1
    60    26    56    1
    61    26    57    1
    62    27    58    1
    63    27    59    1
    64    29    60    1
    65    29    61    1
    66    29    62    1
    67    30    63    1
    68    30    64    1
    69    30    65    1
    70    34    66    1
    71    35    67    1
    72    68     1    1
    73    68    33    1
    74    68    18    1
    75    68    11    1
@<TRIPOS>MOLECULE
*****
 68 75 0 0 0
SMALL
GASTEIGER

@<TRIPOS>ATOM
      1 O          -2.0086    0.3626   -2.2846 O.2     1  UNL1        0.0000
      2 C          -2.2677    0.5962   -1.6717 C.2     1  UNL1        0.0000
      3 N          -2.4342   -1.0769    1.8785 N.am    1  UNL1        0.0000
      4 C          -2.6736   -1.2318    3.1827 C.3     1  UNL1        0.0000
      5 C          -0.0293   -3.2617    2.2373 C.3     1  UNL1        0.0000
      6 C           0.9169   -2.3909    1.8615 C.3     1  UNL1        0.0000
      7 C           0.5673   -1.8121   -1.8233 C.3     1  UNL1        0.0000
      8 C           0.4886    2.6903   -1.4455 C.ar    1  UNL1        0.0000
      9 C           1.7132    1.1695   -0.9312 C.ar    1  UNL1        0.0000
     10 C           0.1895   -0.9696   -3.6954 C.ar    1  UNL1        0.0000
     11 N           0.9711    2.9361   -1.9133 N.ar    1  UNL1        0.0000
     12 C           1.0426    1.2348   -2.8738 C.ar    1  UNL1        0.0000
     13 C           0.0898   -0.9487   -3.6503 C.ar    1  UNL1        0.0000
     14 C           0.7535   -3.6518   -0.9897 C.ar    1  UNL1        0.0000
     15 C           0.7493   -3.2916    0.1344 C.ar    1  UNL1        0.0000
     16 C           2.1006   -1.4171   -0.2734 C.ar    1  UNL1        0.0000
     17 C           3.0414   -0.4711   -0.5691 C.ar    1  UNL1        0.0000
     18 N           2.8164    0.2930    0.4757 N.ar    1  UNL1        0.0000
     19 C           0.3443   -0.3814    1.3162 C.ar    1  UNL1        0.0000
     20 C          -0.7241   -0.2056    1.8664 C.ar    1  UNL1        0.0000
     21 N          -3.0001   -1.4355    0.2097 N.ar    1  UNL1        0.0000
     22 C          -3.1751   -0.9293   -0.5167 C.ar    1  UNL1        0.0000
     23 C          -1.4909   -1.3690   -1.2823 C.3     1  UNL1        0.0000
     24 C          -0.2648    0.3146   -1.2074 C.3     1  UNL1        0.0000
     25 C           0.0153    0.0700   -1.3102 C.3     1  UNL1        0.0000
     26 C          -0.0526    0.2983   -1.1801 C.3     1  UNL1        0.0000
     27 C          -1.7230    0.5415    0.3074 C.3     1  UNL1        0.0000
     28 C          -0.3195    1.5533    0.8199 C.3     1  UNL1        0.0000
     29 C           0.8173    2.2833    0.5512 C.3     1  UNL1        0.0000
     30 C          -0.9876   -2.0081    0.9766 C.3     1  UNL1        0.0000
     31 C          -2.7501    1.8847   -0.2511 C.ar    1  UNL1        0.0000
     32 N          -2.6951    3.1557   -0.1031 N.ar    1  UNL1        0.0000
     33 N          -1.3881    3.0775    0.8668 N.ar    1  UNL1        0.0000
     34 C           0.2608   -0.3359    1.1371 C.ar    1  UNL1        0.0000
     35 C           1.0529   -0.2772    0.6755 C.ar    1  UNL1        0.0000
     36 H          -2.9982   -0.3385    2.5903 H       1  UNL1        0.0000
     37 H          -2.2354   -2.8677    3.1174 H       1  UNL1        0.0000
     38 H          -1.5902   -0.1743    3.6353 H       1  UNL1        0.0000
     39 H           1.8261   -4.7769    0.2409 H       1  UNL1        0.0000
     40 H          -0.7817   -1.9141    2.9478 H       1  UNL1        0.0000
     41 H           2.5534   -2.0275    2.2530 H       1  UNL1        0.0000
     42 H          -1.0738   -3.5274   -0.0055 H       1  UNL1        0.0000
     43 H          -0.6420    0.6598   -3.2008 H       1  UNL1        0.0000
     44 H           2.1223   -0.1512   -2.0462 H       1  UNL1        0.0000
     45 H           0.4869   -2.2788   -2.1356 H       1  UNL1        0.0000
     46 H           1.3538    1.0073    2.0543 H       1  UNL1        0.0000
     47 H          -0.0075   -2.2206   -3.9565 H       1  UNL1        0.0000
     48 H           2.4611   -3.5804   -1.0613 H       1  UNL1        0.0000
     49 H           0.6087   -2.2859    3.6174 H       1  UNL1        0.0000
     50 H          -1.2398   -1.1403   -0.7183 H       1  UNL1        0.0000
     51 H          -1.2398   -1.1403   -0.7183 H       1  UNL1        0.0000
     52 H          -1.0694    2.4065   -2.3844 H       1  UNL1        0.0000
     53 H           2.2750   -2.1569   -2.0370 H       1  UNL1        0.0000
     54 H          -1.0343    2.2323   -0.7656 H       1  UNL1        0.0000
     55 H           0.2417   -1.6038   -0.1886 H       1  UNL1        0.0000
     56 H           3.0678    1.9294   -0.1570 H       1  UNL1        0.0000
     57 H           1.7904   -1.1089   -3.0565 H       1  UNL1        0.0000
     58 H          -3.4498   -0.6813   -2.2966 H       1  UNL1        0.0000
     59 H           1.6784   -0.5698    2.3839 H       1  UNL1        0.0000
     60 H          -2.5062    1.9737    1.4592 H       1  UNL1        0.0000
     61 H           2.7813    1.6762   -2.2160 H       1  UNL1        0.0000
     62 H           2.8318    2.4452   -1.6984 H       1  UNL1        0.0000
     63 H          -0.1920    1.2243    2.6055 H       1  UNL1        0.0000
     64 H           2.2973   -2.8642    0.8487 H       1  UNL1        0.0000
     65 H          -2.1218   -3.0673    1.2928 H       1  UNL1        0.0000
     66 H          -1.7810    1.0355    2.3247 H       1  UNL1        0.0000
     67 H           2.5225    1.6991    1.4706 H       1  UNL1        0.0000
     68 EU          1.2683    2.8214   -1.6663 Eu      1  UNL1        0.0000
@<TRIPOS>BOND
     1     1     2    2
     2     2     3   am
     3     3     4    1
     4     3     5    1
     5     5     6    1
     6     6     7    1
     7     2     8    1
     8     8     9   ar
     9     9    10   ar
    10     8    11   ar
    11    11    12   ar
    12    12    13   ar
    13    10    13   ar
    14    13    14   ar
    15    14    15   ar
    16    15    16   ar
    17    16    17   ar
    18    12    17   ar
    19    17    18   ar
    20    18    19   ar
    21    19    20    1
    22    20    21   ar
    23    21    22   ar
    24    22    23    1
    25    23    24    1
    26    23    25    1
    27    23    26    1
    28    26    27    1
    29    27    28    1
    30    28    29    1
    31    28    30    1
    32    22    31   ar
    33    28    31    1
    34    31    32   ar
    35    32    33   ar
    36    20    33   ar
    37    19    34   ar
    38    34    35   ar
    39    16    35   ar
    40     4    36    1
    41     4    37    1
    42     4    38    1
    43     5    39    1
    44     5    40    1
    45     6    41    1
    46     6    42    1
    47     7    43    1
    48     7    44    1
    49     7    45    1
    50     9    46    1
    51    10    47    1
    52    14    48    1
    53    15    49    1
    54    24    50    1
    55    24    51    1
    56    24    52    1
    57    25    53    1
    58    25    54    1
    59    25    55    1
    60    26    56    1
    61    26    57    1
    62    27    58    1
    63    27    59    1
    64    29    60    1
    65    29    61    1
    66    29    62    1
    67    30    63    1
    68    30    64    1
    69    30    65    1
    70    34    66    1
    71    35    67    1
    72    68     1    1
    73    68    33    1
    74    68    18    1
    75    68    11    1
@<TRIPOS>MOLECULE
*****
 68 75 0 0 0
SMALL
GASTEIGER

@<TRIPOS>ATOM
      1 O          -2.0094    0.3647   -2.2848 O.2     1  UNL1        0.0000
      2 C          -2.2679    0.5979   -1.6713 C.2     1  UNL1        0.0000
      3 N          -2.4346   -1.0763    1.8782 N.am    1  UNL1        0.0000
      4 C          -2.6735   -1.2312    3.1832 C.3     1  UNL1        0.0000
      5 C          -0.0320   -3.2628    2.2365 C.3     1  UNL1        0.0000
      6 C           0.9165   -2.3914    1.8611 C.3     1  UNL1        0.0000
      7 C           0.5690   -1.8114   -1.8238 C.3     1  UNL1        0.0000
      8 C           0.4875    2.6895   -1.4465 C.ar    1  UNL1        0.0000
      9 C           1.7121    1.1695   -0.9313 C.ar    1  UNL1        0.0000
     10 C           0.1906   -0.9679   -3.6959 C.ar    1  UNL1        0.0000
     11 N           0.9711    2.9355   -1.9151 N.ar    1  UNL1        0.0000
     12 C           1.0439    1.2331   -2.8749 C.ar    1  UNL1        0.0000
     13 C           0.0939   -0.9468   -3.6515 C.ar    1  UNL1        0.0000
     14 C           0.7549   -3.6520   -0.9919 C.ar    1  UNL1        0.0000
     15 C           0.7498   -3.2898    0.1329 C.ar    1  UNL1        0.0000
     16 C           2.1007   -1.4172   -0.2720 C.ar    1  UNL1        0.0000
     17 C           3.0411   -0.4713   -0.5698 C.ar    1  UNL1        0.0000
     18 N           2.8168    0.2932    0.4746 N.ar    1  UNL1        0.0000
     19 C           0.3460   -0.3812    1.3160 C.ar    1  UNL1        0.0000
     20 C          -0.7241   -0.2054    1.8673 C.ar    1  UNL1        0.0000
     21 N          -3.0004   -1.4346    0.2094 N.ar    1  UNL1        0.0000
     22 C          -3.1749   -0.9273   -0.5153 C.ar    1  UNL1        0.0000
     23 C          -1.4898   -1.3671   -1.2820 C.3     1  UNL1        0.0000
     24 C          -0.2645    0.3108   -1.2095 C.3     1  UNL1        0.0000
     25 C           0.0146    0.0700   -1.3097 C.3     1  UNL1        0.0000
     26 C          -0.0522    0.2964   -1.1811 C.3     1  UNL1        0.0000
     27 C          -1.7207    0.5426    0.3072 C.3     1  UNL1        0.0000
     28 C          -0.3225    1.5513    0.8167 C.3     1  UNL1        0.0000
     29 C           0.8171    2.2849    0.5509 C.3     1  UNL1        0.0000
     30 C          -0.9876   -2.0069    0.9759 C.3     1  UNL1        0.0000
     31 C          -2.7513    1.8829   -0.2474 C.ar    1  UNL1        0.0000
     32 N          -2.6945    3.1555   -0.1022 N.ar    1  UNL1        0.0000
     33 N          -1.3876    3.0782    0.8663 N.ar    1  UNL1        0.0000
     34 C           0.2627   -0.3359    1.1377 C.ar    1  UNL1        0.0000
     35 C           1.0535   -0.2773    0.6766 C.ar    1  UNL1        0.0000
     36 H          -2.9988   -0.3386    2.5907 H       1  UNL1        0.0000
     37 H          -2.2364   -2.8662    3.1180 H       1  UNL1        0.0000
     38 H          -1.5915   -0.1756    3.6364 H       1  UNL1        0.0000
     39 H           1.8243   -4.7767    0.2457 H       1  UNL1        0.0000
     40 H          -0.7813   -1.9157    2.9477 H       1  UNL1        0.0000
     41 H           2.5523   -2.0281    2.2535 H       1  UNL1        0.0000
     42 H          -1.0726   -3.5283   -0.0040 H       1  UNL1        0.0000
     43 H          -0.6416    0.6587   -3.2010 H       1  UNL1        0.0000
     44 H           2.1213   -0.1518   -2.0462 H       1  UNL1        0.0000
     45 H           0.4862   -2.2787   -2.1376 H       1  UNL1        0.0000
     46 H           1.3538    1.0092    2.0524 H       1  UNL1        0.0000
     47 H          -0.0071   -2.2200   -3.9567 H       1  UNL1        0.0000
     48 H           2.4592   -3.5817   -1.0626 H       1  UNL1        0.0000
     49 H           0.6095   -2.2889    3.6167 H       1  UNL1        0.0000
     50 H          -1.2410   -1.1410   -0.7198 H       1  UNL1        0.0000
     51 H          -1.2410   -1.1410   -0.7198 H       1  UNL1        0.0000
     52 H          -1.0704    2.4029   -2.3851 H       1  UNL1        0.0000
     53 H           2.2764   -2.1553   -2.0359 H       1  UNL1        0.0000
     54 H          -1.0352    2.2286   -0.7667 H       1  UNL1        0.0000
     55 H           0.2409   -1.6024   -0.1897 H       1  UNL1        0.0000
     56 H           3.0661    1.9302   -0.1569 H       1  UNL1        0.0000
     57 H           1.7937   -1.1093   -3.0584 H       1  UNL1        0.0000
     58 H          -3.4497   -0.6809   -2.2949 H       1  UNL1        0.0000
     59 H           1.6776   -0.5687    2.3870 H       1  UNL1        0.0000
     60 H          -2.5047    1.9752    1.4623 H       1  UNL1        0.0000
     61 H           2.7819    1.6792   -2.2136 H       1  UNL1        0.0000
     62 H           2.8319    2.4461   -1.6961 H       1  UNL1        0.0000
     63 H          -0.1912    1.2243    2.6064 H       1  UNL1        0.0000
     64 H           2.2977   -2.8649    0.8492 H       1  UNL1        0.0000
     65 H          -2.1211   -3.0665    1.2928 H       1  UNL1        0.0000
     66 H          -1.7807    1.0353    2.3269 H       1  UNL1        0.0000
     67 H           2.5235    1.6998    1.4696 H       1  UNL1        0.0000
     68 EU          1.2678    2.8212   -1.6682 Eu      1  UNL1        0.0000
@<TRIPOS>BOND
     1     1     2    2
     2     2     3   am
     3     3     4    1
     4     3     5    1
     5     5     6    1
     6     6     7    1
     7     2     8    1
     8     8     9   ar
     9     9    10   ar
    10     8    11   ar
    11    11    12   ar
    12    12    13   ar
    13    10    13   ar
    14    13    14   ar
    15    14    15   ar
    16    15    16   ar
    17    16    17   ar
    18    12    17   ar
    19    17    18   ar
    20    18    19   ar
    21    19    20    1
    22    20    21   ar
    23    21    22   ar
    24    22    23    1
    25    23    24    1
    26    23    25    1
    27    23    26    1
    28    26    27    1
    29    27    28    1
    30    28    29    1
    31    28    30    1
    32    22    31   ar
    33    28    31    1
    34    31    32   ar
    35    32    33   ar
    36    20    33   ar
    37    19    34   ar
    38    34    35   ar
    39    16    35   ar
    40     4    36    1
    41     4    37    1
    42     4    38    1
    43     5    39    1
    44     5    40    1
    45     6    41    1
    46     6    42    1
    47     7    43    1
    48     7    44    1
    49     7    45    1
    50     9    46    1
    51    10    47    1
    52    14    48    1
    53    15    49    1
    54    24    50    1
    55    24    51    1
    56    24    52    1
    57    25    53    1
    58    25    54    1
    59    25    55    1
    60    26    56    1
    61    26    57    1
    62    27    58    1
    63    27    59    1
    64    29    60    1
    65    29    61    1
    66    29    62    1
    67    30    63    1
    68    30    64    1
    69    30    65    1
    70    34    66    1
    71    35    67    1
    72    68     1    1
    73    68    33    1
    74    68    18    1
    75    68    11    1
@<TRIPOS>MOLECULE
*****
 68 75 0 0 0
SMALL
GASTEIGER

@<TRIPOS>ATOM
      1 O          -2.0099    0.3662   -2.2850 O.2     1  UNL1        0.0000
      2 C          -2.2679    0.5992   -1.6711 C.2     1  UNL1        0.0000
      3 N          -2.4349   -1.0759    1.8780 N.am    1  UNL1        0.0000
      4 C          -2.6734   -1.2308    3.1836 C.3     1  UNL1        0.0000
      5 C          -0.0339   -3.2636    2.2359 C.3     1  UNL1        0.0000
      6 C           0.9162   -2.3918    1.8608 C.3     1  UNL1        0.0000
      7 C           0.5701   -1.8108   -1.8242 C.3     1  UNL1        0.0000
      8 C           0.4867    2.6889   -1.4472 C.ar    1  UNL1        0.0000
      9 C           1.7113    1.1695   -0.9314 C.ar    1  UNL1        0.0000
     10 C           0.1931   -0.9654   -3.6967 C.ar    1  UNL1        0.0000
     11 N           0.9711    2.9351   -1.9164 N.ar    1  UNL1        0.0000
     12 C           1.0448    1.2319   -2.8757 C.ar    1  UNL1        0.0000
     13 C           0.0976   -0.9454   -3.6529 C.ar    1  UNL1        0.0000
     14 C           0.7560   -3.6522   -0.9934 C.ar    1  UNL1        0.0000
     15 C           0.7502   -3.2886    0.1319 C.ar    1  UNL1        0.0000
     16 C           2.1008   -1.4173   -0.2711 C.ar    1  UNL1        0.0000
     17 C           3.0409   -0.4715   -0.5703 C.ar    1  UNL1        0.0000
     18 N           2.8171    0.2933    0.4738 N.ar    1  UNL1        0.0000
     19 C           0.3471   -0.3810    1.3159 C.ar    1  UNL1        0.0000
     20 C          -0.7241   -0.2053    1.8680 C.ar    1  UNL1        0.0000
     21 N          -3.0007   -1.4339    0.2091 N.ar    1  UNL1        0.0000
     22 C          -3.1748   -0.9260   -0.5143 C.ar    1  UNL1        0.0000
     23 C          -1.4890   -1.3658   -1.2818 C.3     1  UNL1        0.0000
     24 C          -0.2643    0.3082   -1.2110 C.3     1  UNL1        0.0000
     25 C           0.0140    0.0700   -1.3094 C.3     1  UNL1        0.0000
     26 C          -0.0519    0.2951   -1.1819 C.3     1  UNL1        0.0000
     27 C          -1.7191    0.5434    0.3071 C.3     1  UNL1        0.0000
     28 C          -0.3246    1.5500    0.8144 C.3     1  UNL1        0.0000
     29 C           0.8169    2.2860    0.5506 C.3     1  UNL1        0.0000
     30 C          -0.9876   -2.0060    0.9755 C.3     1  UNL1        0.0000
     31 C          -2.7521    1.8816   -0.2447 C.ar    1  UNL1        0.0000
     32 N          -2.6941    3.1554   -0.1016 N.ar    1  UNL1        0.0000
     33 N          -1.3872    3.0787    0.8660 N.ar    1  UNL1        0.0000
     34 C           0.2640   -0.3359    1.1381 C.ar    1  UNL1        0.0000
     35 C           1.0539   -0.2774    0.6774 C.ar    1  UNL1        0.0000
     36 H          -2.9992   -0.3387    2.5910 H       1  UNL1        0.0000
     37 H          -2.2371   -2.8652    3.1184 H       1  UNL1        0.0000
     38 H          -1.5925   -0.1765    3.6371 H       1  UNL1        0.0000
     39 H           1.8230   -4.7765    0.2490 H       1  UNL1        0.0000
     40 H          -0.7810   -1.9168    2.9476 H       1  UNL1        0.0000
     41 H           2.5514   -2.0285    2.2538 H       1  UNL1        0.0000
     42 H          -1.0717   -3.5289   -0.0030 H       1  UNL1        0.0000
     43 H          -0.6413    0.6580   -3.2011 H       1  UNL1        0.0000
     44 H           2.1206   -0.1522   -2.0463 H       1  UNL1        0.0000
     45 H           0.4858   -2.2787   -2.1391 H       1  UNL1        0.0000
     46 H           1.3538    1.0105    2.0511 H       1  UNL1        0.0000
     47 H          -0.0068   -2.2196   -3.9568 H       1  UNL1        0.0000
     48 H           2.4578   -3.5826   -1.0635 H       1  UNL1        0.0000
     49 H           0.6100   -2.2910    3.6163 H       1  UNL1        0.0000
     50 H          -1.2418   -1.1414   -0.7209 H       1  UNL1        0.0000
     51 H          -1.2418   -1.1414   -0.7209 H       1  UNL1        0.0000
     52 H          -1.0710    2.4003   -2.3855 H       1  UNL1        0.0000
     53 H           2.2774   -2.1542   -2.0352 H       1  UNL1        0.0000
     54 H          -1.0358    2.2260   -0.7675 H       1  UNL1        0.0000
     55 H           0.2404   -1.6014   -0.1904 H       1  UNL1        0.0000
     56 H           3.0650    1.9308   -0.1569 H       1  UNL1        0.0000
     57 H           1.7960   -1.1096   -3.0598 H       1  UNL1        0.0000
     58 H          -3.4496   -0.6806   -2.2938 H       1  UNL1        0.0000
     59 H           1.6770   -0.5679    2.3891 H       1  UNL1        0.0000
     60 H          -2.5037    1.9763    1.4645 H       1  UNL1        0.0000
     61 H           2.7822    1.6812   -2.2119 H       1  UNL1        0.0000
     62 H           2.8320    2.4467   -1.6945 H       1  UNL1        0.0000
     63 H          -0.1907    1.2243    2.6069 H       1  UNL1        0.0000
     64 H           2.2980   -2.8654    0.8496 H       1  UNL1        0.0000
     65 H          -2.1207   -3.0660    1.2927 H       1  UNL1        0.0000
     66 H          -1.7804    1.0352    2.3284 H       1  UNL1        0.0000
     67 H           2.5242    1.7003    1.4690 H       1  UNL1        0.0000
     68 EU          1.2674    2.8210   -1.6695 Eu      1  UNL1        0.0000
@<TRIPOS>BOND
     1     1     2    2
     2     2     3   am
     3     3     4    1
     4     3     5    1
     5     5     6    1
     6     6     7    1
     7     2     8    1
     8     8     9   ar
     9     9    10   ar
    10     8    11   ar
    11    11    12   ar
    12    12    13   ar
    13    10    13   ar
    14    13    14   ar
    15    14    15   ar
    16    15    16   ar
    17    16    17   ar
    18    12    17   ar
    19    17    18   ar
    20    18    19   ar
    21    19    20    1
    22    20    21   ar
    23    21    22   ar
    24    22    23    1
    25    23    24    1
    26    23    25    1
    27    23    26    1
    28    26    27    1
    29    27    28    1
    30    28    29    1
    31    28    30    1
    32    22    31   ar
    33    28    31    1
    34    31    32   ar
    35    32    33   ar
    36    20    33   ar
    37    19    34   ar
    38    34    35   ar
    39    16    35   ar
    40     4    36    1
    41     4    37    1
    42     4    38    1
    43     5    39    1
    44     5    40    1
    45     6    41    1
    46     6    42    1
    47     7    43    1
    48     7    44    1
    49     7    45    1
    50     9    46    1
    51    10    47    1
    52    14    48    1
    53    15    49    1
    54    24    50    1
    55    24    51    1
    56    24    52    1
    57    25    53    1
    58    25    54    1
    59    25    55    1
    60    26    56    1
    61    26    57    1
    62    27    58    1
    63    27    59    1
    64    29    60    1
    65    29    61    1
    66    29    62    1
    67    30    63    1
    68    30    64    1
    69    30    65    1
    70    34    66    1
    71    35    67    1
    72    68     1    1
    73    68    33    1
    74    68    18    1
    75    68    11    1
@<TRIPOS>MOLECULE
*****
 68 75 0 0 0
SMALL
GASTEIGER

@<TRIPOS>ATOM
      1 O          -2.0105    0.3679   -2.2853 O.2     1  UNL1        0.0000
      2 C          -2.2681    0.6007   -1.6708 C.2     1  UNL1        0.0000
      3 N          -2.4352   -1.0754    1.8777 N.am    1  UNL1        0.0000
      4 C          -2.6733   -1.2304    3.1839 C.3     1  UNL1        0.0000
      5 C          -0.0361   -3.2645    2.2352 C.3     1  UNL1        0.0000
      6 C           0.9159   -2.3922    1.8604 C.3     1  UNL1        0.0000
      7 C           0.5715   -1.8102   -1.8246 C.3     1  UNL1        0.0000
      8 C           0.4858    2.6883   -1.4481 C.ar    1  UNL1        0.0000
      9 C           1.7104    1.1695   -0.9314 C.ar    1  UNL1        0.0000
     10 C           0.1951   -0.9640   -3.6968 C.ar    1  UNL1        0.0000
     11 N           0.9711    2.9347   -1.9179 N.ar    1  UNL1        0.0000
     12 C           1.0458    1.2306   -2.8765 C.ar    1  UNL1        0.0000
     13 C           0.1004   -0.9434   -3.6553 C.ar    1  UNL1        0.0000
     14 C           0.7572   -3.6523   -0.9953 C.ar    1  UNL1        0.0000
     15 C           0.7506   -3.2870    0.1306 C.ar    1  UNL1        0.0000
     16 C           2.1009   -1.4175   -0.2700 C.ar    1  UNL1        0.0000
     17 C           3.0406   -0.4716   -0.5709 C.ar    1  UNL1        0.0000
     18 N           2.8175    0.2935    0.4728 N.ar    1  UNL1        0.0000
     19 C           0.3484   -0.3808    1.3158 C.ar    1  UNL1        0.0000
     20 C          -0.7241   -0.2052    1.8688 C.ar    1  UNL1        0.0000
     21 N          -3.0009   -1.4331    0.2089 N.ar    1  UNL1        0.0000
     22 C          -3.1746   -0.9243   -0.5132 C.ar    1  UNL1        0.0000
     23 C          -1.4880   -1.3642   -1.2815 C.3     1  UNL1        0.0000
     24 C          -0.2641    0.3051   -1.2128 C.3     1  UNL1        0.0000
     25 C           0.0134    0.0700   -1.3090 C.3     1  UNL1        0.0000
     26 C          -0.0515    0.2935   -1.1828 C.3     1  UNL1        0.0000
     27 C          -1.7172    0.5442    0.3070 C.3     1  UNL1        0.0000
     28 C          -0.3272    1.5484    0.8118 C.3     1  UNL1        0.0000
     29 C           0.8166    2.2873    0.5503 C.3     1  UNL1        0.0000
     30 C          -0.9876   -2.0050    0.9750 C.3     1  UNL1        0.0000
     31 C          -2.7530    1.8800   -0.2416 C.ar    1  UNL1        0.0000
     32 N          -2.6937    3.1552   -0.1009 N.ar    1  UNL1        0.0000
     33 N          -1.3868    3.0793    0.8656 N.ar    1  UNL1        0.0000
     34 C           0.2656   -0.3358    1.1387 C.ar    1  UNL1        0.0000
     35 C           1.0544   -0.2775    0.6783 C.ar    1  UNL1        0.0000
     36 H          -2.9997   -0.3388    2.5913 H       1  UNL1        0.0000
     37 H          -2.2380   -2.8640    3.1188 H       1  UNL1        0.0000
     38 H          -1.5937   -0.1776    3.6379 H       1  UNL1        0.0000
     39 H           1.8214   -4.7764    0.2529 H       1  UNL1        0.0000
     40 H          -0.7806   -1.9181    2.9475 H       1  UNL1        0.0000
     41 H           2.5504   -2.0290    2.2543 H       1  UNL1        0.0000
     42 H          -1.0707   -3.5297   -0.0017 H       1  UNL1        0.0000
     43 H          -0.6411    0.6572   -3.2013 H       1  UNL1        0.0000
     44 H           2.1198   -0.1527   -2.0463 H       1  UNL1        0.0000
     45 H           0.4852   -2.2786   -2.1407 H       1  UNL1        0.0000
     46 H           1.3537    1.0120    2.0496 H       1  UNL1        0.0000
     47 H          -0.0064   -2.2191   -3.9570 H       1  UNL1        0.0000
     48 H           2.4562   -3.5837   -1.0645 H       1  UNL1        0.0000
     49 H           0.6107   -2.2935    3.6157 H       1  UNL1        0.0000
     50 H          -1.2427   -1.1420   -0.7221 H       1  UNL1        0.0000
     51 H          -1.2427   -1.1420   -0.7221 H       1  UNL1        0.0000
     52 H          -1.0718    2.3973   -2.3861 H       1  UNL1        0.0000
     53 H           2.2786   -2.1529   -2.0343 H       1  UNL1        0.0000
     54 H          -1.0366    2.2229   -0.7684 H       1  UNL1        0.0000
     55 H           0.2397   -1.6001   -0.1912 H       1  UNL1        0.0000
     56 H           3.0636    1.9315   -0.1568 H       1  UNL1        0.0000
     57 H           1.7987   -1.1100   -3.0614 H       1  UNL1        0.0000
     58 H          -3.4494   -0.6803   -2.2925 H       1  UNL1        0.0000
     59 H           1.6763   -0.5670    2.3916 H       1  UNL1        0.0000
     60 H          -2.5025    1.9775    1.4671 H       1  UNL1        0.0000
     61 H           2.7827    1.6837   -2.2098 H       1  UNL1        0.0000
     62 H           2.8321    2.4474   -1.6925 H       1  UNL1        0.0000
     63 H          -0.1901    1.2242    2.6076 H       1  UNL1        0.0000
     64 H           2.2983   -2.8660    0.8500 H       1  UNL1        0.0000
     65 H          -2.1202   -3.0653    1.2927 H       1  UNL1        0.0000
     66 H          -1.7802    1.0350    2.3302 H       1  UNL1        0.0000
     67 H           2.5250    1.7008    1.4682 H       1  UNL1        0.0000
     68 EU          1.2669    2.8208   -1.6711 Eu      1  UNL1        0.0000
@<TRIPOS>BOND
     1     1     2    2
     2     2     3   am
     3     3     4    1
     4     3     5    1
     5     5     6    1
     6     6     7    1
     7     2     8    1
     8     8     9   ar
     9     9    10   ar
    10     8    11   ar
    11    11    12   ar
    12    12    13   ar
    13    10    13   ar
    14    13    14   ar
    15    14    15   ar
    16    15    16   ar
    17    16    17   ar
    18    12    17   ar
    19    17    18   ar
    20    18    19   ar
    21    19    20    1
    22    20    21   ar
    23    21    22   ar
    24    22    23    1
    25    23    24    1
    26    23    25    1
    27    23    26    1
    28    26    27    1
    29    27    28    1
    30    28    29    1
    31    28    30    1
    32    22    31   ar
    33    28    31    1
    34    31    32   ar
    35    32    33   ar
    36    20    33   ar
    37    19    34   ar
    38    34    35   ar
    39    16    35   ar
    40     4    36    1
    41     4    37    1
    42     4    38    1
    43     5    39    1
    44     5    40    1
    45     6    41    1
    46     6    42    1
    47     7    43    1
    48     7    44    1
    49     7    45    1
    50     9    46    1
    51    10    47    1
    52    14    48    1
    53    15    49    1
    54    24    50    1
    55    24    51    1
    56    24    52    1
    57    25    53    1
    58    25    54    1
    59    25    55    1
    60    26    56    1
    61    26    57    1
    62    27    58    1
    63    27    59    1
    64    29    60    1
    65    29    61    1
    66    29    62    1
    67    30    63    1
    68    30    64    1
    69    30    65    1
    70    34    66    1
    71    35    67    1
    72    68     1    1
    73    68    33    1
    74    68    18    1
    75    68    11    1
@<TRIPOS>MOLECULE
*****
 68 75 0 0 0
SMALL
GASTEIGER

@<TRIPOS>ATOM
      1 O          -2.0109    0.3690   -2.2854 O.2     1  UNL1        0.0000
      2 C          -2.2681    0.6016   -1.6706 C.2     1  UNL1        0.0000
      3 N          -2.4354   -1.0751    1.8776 N.am    1  UNL1        0.0000
      4 C          -2.6732   -1.2301    3.1842 C.3     1  UNL1        0.0000
      5 C          -0.0376   -3.2651    2.2348 C.3     1  UNL1        0.0000
      6 C           0.9157   -2.3925    1.8602 C.3     1  UNL1        0.0000
      7 C           0.5723   -1.8099   -1.8250 C.3     1  UNL1        0.0000
      8 C           0.4852    2.6879   -1.4486 C.ar    1  UNL1        0.0000
      9 C           1.7098    1.1695   -0.9315 C.ar    1  UNL1        0.0000
     10 C           0.1963   -0.9624   -3.6968 C.ar    1  UNL1        0.0000
     11 N           0.9711    2.9344   -1.9188 N.ar    1  UNL1        0.0000
     12 C           1.0465    1.2298   -2.8771 C.ar    1  UNL1        0.0000
     13 C           0.1053   -0.9413   -3.6565 C.ar    1  UNL1        0.0000
     14 C           0.7580   -3.6525   -0.9964 C.ar    1  UNL1        0.0000
     15 C           0.7508   -3.2861    0.1298 C.ar    1  UNL1        0.0000
     16 C           2.1010   -1.4176   -0.2693 C.ar    1  UNL1        0.0000
     17 C           3.0404   -0.4717   -0.5713 C.ar    1  UNL1        0.0000
     18 N           2.8177    0.2936    0.4722 N.ar    1  UNL1        0.0000
     19 C           0.3493   -0.3806    1.3157 C.ar    1  UNL1        0.0000
     20 C          -0.7241   -0.2051    1.8693 C.ar    1  UNL1        0.0000
     21 N          -3.0011   -1.4326    0.2087 N.ar    1  UNL1        0.0000
     22 C          -3.1745   -0.9233   -0.5125 C.ar    1  UNL1        0.0000
     23 C          -1.4874   -1.3632   -1.2813 C.3     1  UNL1        0.0000
     24 C          -0.2640    0.3031   -1.2139 C.3     1  UNL1        0.0000
     25 C           0.0130    0.0700   -1.3087 C.3     1  UNL1        0.0000
     26 C          -0.0513    0.2925   -1.1833 C.3     1  UNL1        0.0000
     27 C          -1.7161    0.5448    0.3069 C.3     1  UNL1        0.0000
     28 C          -0.3288    1.5473    0.8101 C.3     1  UNL1        0.0000
     29 C           0.8165    2.2882    0.5501 C.3     1  UNL1        0.0000
     30 C          -0.9876   -2.0044    0.9746 C.3     1  UNL1        0.0000
     31 C          -2.7536    1.8791   -0.2396 C.ar    1  UNL1        0.0000
     32 N          -2.6933    3.1551   -0.1004 N.ar    1  UNL1        0.0000
     33 N          -1.3865    3.0796    0.8654 N.ar    1  UNL1        0.0000
     34 C           0.2666   -0.3358    1.1390 C.ar    1  UNL1        0.0000
     35 C           1.0547   -0.2776    0.6789 C.ar    1  UNL1        0.0000
     36 H          -3.0000   -0.3389    2.5916 H       1  UNL1        0.0000
     37 H          -2.2385   -2.8632    3.1191 H       1  UNL1        0.0000
     38 H          -1.5944   -0.1783    3.6385 H       1  UNL1        0.0000
     39 H           1.8204   -4.7762    0.2554 H       1  UNL1        0.0000
     40 H          -0.7804   -1.9190    2.9474 H       1  UNL1        0.0000
     41 H           2.5498   -2.0293    2.2545 H       1  UNL1        0.0000
     42 H          -1.0701   -3.5301   -0.0009 H       1  UNL1        0.0000
     43 H          -0.6409    0.6566   -3.2014 H       1  UNL1        0.0000
     44 H           2.1193   -0.1530   -2.0464 H       1  UNL1        0.0000
     45 H           0.4849   -2.2785   -2.1418 H       1  UNL1        0.0000
     46 H           1.3537    1.0130    2.0486 H       1  UNL1        0.0000
     47 H          -0.0062   -2.2188   -3.9572 H       1  UNL1        0.0000
     48 H           2.4552   -3.5843   -1.0651 H       1  UNL1        0.0000
     49 H           0.6111   -2.2951    3.6154 H       1  UNL1        0.0000
     50 H          -1.2433   -1.1424   -0.7229 H       1  UNL1        0.0000
     51 H          -1.2433   -1.1424   -0.7229 H       1  UNL1        0.0000
     52 H          -1.0723    2.3954   -2.3865 H       1  UNL1        0.0000
     53 H           2.2794   -2.1520   -2.0337 H       1  UNL1        0.0000
     54 H          -1.0371    2.2210   -0.7690 H       1  UNL1        0.0000
     55 H           0.2393   -1.5994   -0.1918 H       1  UNL1        0.0000
     56 H           3.0627    1.9320   -0.1568 H       1  UNL1        0.0000
     57 H           1.8004   -1.1102   -3.0624 H       1  UNL1        0.0000
     58 H          -3.4493   -0.6801   -2.2916 H       1  UNL1        0.0000
     59 H           1.6758   -0.5664    2.3932 H       1  UNL1        0.0000
     60 H          -2.5017    1.9784    1.4687 H       1  UNL1        0.0000
     61 H           2.7829    1.6853   -2.2085 H       1  UNL1        0.0000
     62 H           2.8322    2.4479   -1.6913 H       1  UNL1        0.0000
     63 H          -0.1897    1.2242    2.6081 H       1  UNL1        0.0000
     64 H           2.2985   -2.8664    0.8503 H       1  UNL1        0.0000
     65 H          -2.1198   -3.0649    1.2927 H       1  UNL1        0.0000
     66 H          -1.7800    1.0349    2.3314 H       1  UNL1        0.0000
     67 H           2.5256    1.7011    1.4677 H       1  UNL1        0.0000
     68 EU          1.2666    2.8206   -1.6721 Eu      1  UNL1        0.0000
@<TRIPOS>BOND
     1     1     2    2
     2     2     3   am
     3     3     4    1
     4     3     5    1
     5     5     6    1
     6     6     7    1
     7     2     8    1
     8     8     9   ar
     9     9    10   ar
    10     8    11   ar
    11    11    12   ar
    12    12    13   ar
    13    10    13   ar
    14    13    14   ar
    15    14    15   ar
    16    15    16   ar
    17    16    17   ar
    18    12    17   ar
    19    17    18   ar
    20    18    19   ar
    21    19    20    1
    22    20    21   ar
    23    21    22   ar
    24    22    23    1
    25    23    24    1
    26    23    25    1
    27    23    26    1
    28    26    27    1
    29    27    28    1
    30    28    29    1
    31    28    30    1
    32    22    31   ar
    33    28    31    1
    34    31    32   ar
    35    32    33   ar
    36    20    33   ar
    37    19    34   ar
    38    34    35   ar
    39    16    35   ar
    40     4    36    1
    41     4    37    1
    42     4    38    1
    43     5    39    1
    44     5    40    1
    45     6    41    1
    46     6    42    1
    47     7    43    1
    48     7    44    1
    49     7    45    1
    50     9    46    1
    51    10    47    1
    52    14    48    1
    53    15    49    1
    54    24    50    1
    55    24    51    1
    56    24    52    1
    57    25    53    1
    58    25    54    1
    59    25    55    1
    60    26    56    1
    61    26    57    1
    62    27    58    1
    63    27    59    1
    64    29    60    1
    65    29    61    1
    66    29    62    1
    67    30    63    1
    68    30    64    1
    69    30    65    1
    70    34    66    1
    71    35    67    1
    72    68     1    1
    73    68    33    1
    74    68    18    1
    75    68    11    1
@<TRIPOS>MOLECULE
*****
 68 75 0 0 0
SMALL
GASTEIGER

@<TRIPOS>ATOM
      1 O          -2.0112    0.3698   -2.2855 O.2     1  UNL1        0.0000
      2 C          -2.2682    0.6023   -1.6704 C.2     1  UNL1        0.0000
      3 N          -2.4356   -1.0748    1.8775 N.am    1  UNL1        0.0000
      4 C          -2.6732   -1.2299    3.1844 C.3     1  UNL1        0.0000
      5 C          -0.0386   -3.2656    2.2345 C.3     1  UNL1        0.0000
      6 C           0.9156   -2.3927    1.8601 C.3     1  UNL1        0.0000
      7 C           0.5729   -1.8096   -1.8252 C.3     1  UNL1        0.0000
      8 C           0.4848    2.6876   -1.4490 C.ar    1  UNL1        0.0000
      9 C           1.7094    1.1695   -0.9315 C.ar    1  UNL1        0.0000
     10 C           0.1972   -0.9608   -3.6970 C.ar    1  UNL1        0.0000
     11 N           0.9711    2.9341   -1.9195 N.ar    1  UNL1        0.0000
     12 C           1.0470    1.2292   -2.8776 C.ar    1  UNL1        0.0000
     13 C           0.1094   -0.9405   -3.6584 C.ar    1  UNL1        0.0000
     14 C           0.7585   -3.6526   -0.9973 C.ar    1  UNL1        0.0000
     15 C           0.7510   -3.2853    0.1293 C.ar    1  UNL1        0.0000
     16 C           2.1011   -1.4176   -0.2688 C.ar    1  UNL1        0.0000
     17 C           3.0403   -0.4718   -0.5715 C.ar    1  UNL1        0.0000
     18 N           2.8179    0.2936    0.4718 N.ar    1  UNL1        0.0000
     19 C           0.3499   -0.3806    1.3156 C.ar    1  UNL1        0.0000
     20 C          -0.7241   -0.2050    1.8696 C.ar    1  UNL1        0.0000
     21 N          -3.0012   -1.4322    0.2086 N.ar    1  UNL1        0.0000
     22 C          -3.1744   -0.9226   -0.5120 C.ar    1  UNL1        0.0000
     23 C          -1.4870   -1.3625   -1.2812 C.3     1  UNL1        0.0000
     24 C          -0.2639    0.3017   -1.2147 C.3     1  UNL1        0.0000
     25 C           0.0127    0.0700   -1.3086 C.3     1  UNL1        0.0000
     26 C          -0.0512    0.2918   -1.1837 C.3     1  UNL1        0.0000
     27 C          -1.7152    0.5452    0.3069 C.3     1  UNL1        0.0000
     28 C          -0.3299    1.5466    0.8089 C.3     1  UNL1        0.0000
     29 C           0.8164    2.2888    0.5500 C.3     1  UNL1        0.0000
     30 C          -0.9876   -2.0040    0.9744 C.3     1  UNL1        0.0000
     31 C          -2.7541    1.8784   -0.2382 C.ar    1  UNL1        0.0000
     32 N          -2.6931    3.1551   -0.1001 N.ar    1  UNL1        0.0000
     33 N          -1.3863    3.0799    0.8652 N.ar    1  UNL1        0.0000
     34 C           0.2673   -0.3358    1.1392 C.ar    1  UNL1        0.0000
     35 C           1.0549   -0.2777    0.6793 C.ar    1  UNL1        0.0000
     36 H          -3.0003   -0.3389    2.5917 H       1  UNL1        0.0000
     37 H          -2.2389   -2.8627    3.1193 H       1  UNL1        0.0000
     38 H          -1.5949   -0.1788    3.6389 H       1  UNL1        0.0000
     39 H           1.8197   -4.7762    0.2572 H       1  UNL1        0.0000
     40 H          -0.7802   -1.9196    2.9474 H       1  UNL1        0.0000
     41 H           2.5493   -2.0295    2.2547 H       1  UNL1        0.0000
     42 H          -1.0696   -3.5305   -0.0003 H       1  UNL1        0.0000
     43 H          -0.6408    0.6563   -3.2014 H       1  UNL1        0.0000
     44 H           2.1189   -0.1532   -2.0464 H       1  UNL1        0.0000
     45 H           0.4846   -2.2785   -2.1425 H       1  UNL1        0.0000
     46 H           1.3537    1.0137    2.0479 H       1  UNL1        0.0000
     47 H          -0.0060   -2.2186   -3.9573 H       1  UNL1        0.0000
     48 H           2.4544   -3.5848   -1.0656 H       1  UNL1        0.0000
     49 H           0.6114   -2.2963    3.6151 H       1  UNL1        0.0000
     50 H          -1.2438   -1.1426   -0.7235 H       1  UNL1        0.0000
     51 H          -1.2438   -1.1426   -0.7235 H       1  UNL1        0.0000
     52 H          -1.0727    2.3941   -2.3867 H       1  UNL1        0.0000
     53 H           2.2799   -2.1514   -2.0333 H       1  UNL1        0.0000
     54 H          -1.0375    2.2196   -0.7695 H       1  UNL1        0.0000
     55 H           0.2390   -1.5988   -0.1922 H       1  UNL1        0.0000
     56 H           3.0620    1.9323   -0.1568 H       1  UNL1        0.0000
     57 H           1.8017   -1.1104   -3.0631 H       1  UNL1        0.0000
     58 H          -3.4492   -0.6800   -2.2910 H       1  UNL1        0.0000
     59 H           1.6755   -0.5659    2.3944 H       1  UNL1        0.0000
     60 H          -2.5011    1.9789    1.4699 H       1  UNL1        0.0000
     61 H           2.7831    1.6864   -2.2076 H       1  UNL1        0.0000
     62 H           2.8323    2.4482   -1.6905 H       1  UNL1        0.0000
     63 H          -0.1894    1.2242    2.6084 H       1  UNL1        0.0000
     64 H           2.2987   -2.8667    0.8505 H       1  UNL1        0.0000
     65 H          -2.1196   -3.0646    1.2927 H       1  UNL1        0.0000
     66 H          -1.7799    1.0349    2.3322 H       1  UNL1        0.0000
     67 H           2.5260    1.7014    1.4673 H       1  UNL1        0.0000
     68 EU          1.2664    2.8205   -1.6728 Eu      1  UNL1        0.0000
@<TRIPOS>BOND
     1     1     2    2
     2     2     3   am
     3     3     4    1
     4     3     5    1
     5     5     6    1
     6     6     7    1
     7     2     8    1
     8     8     9   ar
     9     9    10   ar
    10     8    11   ar
    11    11    12   ar
    12    12    13   ar
    13    10    13   ar
    14    13    14   ar
    15    14    15   ar
    16    15    16   ar
    17    16    17   ar
    18    12    17   ar
    19    17    18   ar
    20    18    19   ar
    21    19    20    1
    22    20    21   ar
    23    21    22   ar
    24    22    23    1
    25    23    24    1
    26    23    25    1
    27    23    26    1
    28    26    27    1
    29    27    28    1
    30    28    29    1
    31    28    30    1
    32    22    31   ar
    33    28    31    1
    34    31    32   ar
    35    32    33   ar
    36    20    33   ar
    37    19    34   ar
    38    34    35   ar
    39    16    35   ar
    40     4    36    1
    41     4    37    1
    42     4    38    1
    43     5    39    1
    44     5    40    1
    45     6    41    1
    46     6    42    1
    47     7    43    1
    48     7    44    1
    49     7    45    1
    50     9    46    1
    51    10    47    1
    52    14    48    1
    53    15    49    1
    54    24    50    1
    55    24    51    1
    56    24    52    1
    57    25    53    1
    58    25    54    1
    59    25    55    1
    60    26    56    1
    61    26    57    1
    62    27    58    1
    63    27    59    1
    64    29    60    1
    65    29    61    1
    66    29    62    1
    67    30    63    1
    68    30    64    1
    69    30    65    1
    70    34    66    1
    71    35    67    1
    72    68     1    1
    73    68    33    1
    74    68    18    1
    75    68    11    1
@<TRIPOS>MOLECULE
*****
 68 75 0 0 0
SMALL
GASTEIGER

@<TRIPOS>ATOM
      1 O          -2.0112    0.3698   -2.2855 O.2     1  UNL1        0.0000
      2 C          -2.2682    0.6023   -1.6704 C.2     1  UNL1        0.0000
      3 N          -2.4356   -1.0748    1.8775 N.am    1  UNL1        0.0000
      4 C          -2.6732   -1.2299    3.1844 C.3     1  UNL1        0.0000
      5 C          -0.0386   -3.2656    2.2345 C.3     1  UNL1        0.0000
      6 C           0.9156   -2.3927    1.8601 C.3     1  UNL1        0.0000
      7 C           0.5729   -1.8096   -1.8252 C.3     1  UNL1        0.0000
      8 C           0.4848    2.6876   -1.4490 C.ar    1  UNL1        0.0000
      9 C           1.7094    1.1695   -0.9315 C.ar    1  UNL1        0.0000
     10 C           0.1972   -0.9608   -3.6970 C.ar    1  UNL1        0.0000
     11 N           0.9711    2.9341   -1.9195 N.ar    1  UNL1        0.0000
     12 C           1.0470    1.2292   -2.8776 C.ar    1  UNL1        0.0000
     13 C           0.1094   -0.9405   -3.6584 C.ar    1  UNL1        0.0000
     14 C           0.7585   -3.6526   -0.9973 C.ar    1  UNL1        0.0000
     15 C           0.7510   -3.2853    0.1293 C.ar    1  UNL1        0.0000
     16 C           2.1011   -1.4176   -0.2688 C.ar    1  UNL1        0.0000
     17 C           3.0403   -0.4718   -0.5715 C.ar    1  UNL1        0.0000
     18 N           2.8179    0.2936    0.4718 N.ar    1  UNL1        0.0000
     19 C           0.3499   -0.3806    1.3156 C.ar    1  UNL1        0.0000
     20 C          -0.7241   -0.2050    1.8696 C.ar    1  UNL1        0.0000
     21 N          -3.0012   -1.4322    0.2086 N.ar    1  UNL1        0.0000
     22 C          -3.1744   -0.9226   -0.5120 C.ar    1  UNL1        0.0000
     23 C          -1.4870   -1.3625   -1.2812 C.3     1  UNL1        0.0000
     24 C          -0.2639    0.3017   -1.2147 C.3     1  UNL1        0.0000
     25 C           0.0127    0.0700   -1.3086 C.3     1  UNL1        0.0000
     26 C          -0.0512    0.2918   -1.1837 C.3     1  UNL1        0.0000
     27 C          -1.7152    0.5452    0.3069 C.3     1  UNL1        0.0000
     28 C          -0.3299    1.5466    0.8089 C.3     1  UNL1        0.0000
     29 C           0.8164    2.2888    0.5500 C.3     1  UNL1        0.0000
     30 C          -0.9876   -2.0040    0.9744 C.3     1  UNL1        0.0000
     31 C          -2.7541    1.8784   -0.2382 C.ar    1  UNL1        0.0000
     32 N          -2.6931    3.1551   -0.1001 N.ar    1  UNL1        0.0000
     33 N          -1.3863    3.0799    0.8652 N.ar    1  UNL1        0.0000
     34 C           0.2673   -0.3358    1.1392 C.ar    1  UNL1        0.0000
     35 C           1.0549   -0.2777    0.6793 C.ar    1  UNL1        0.0000
     36 H          -3.0003   -0.3389    2.5917 H       1  UNL1        0.0000
     37 H          -2.2389   -2.8627    3.1193 H       1  UNL1        0.0000
     38 H          -1.5949   -0.1788    3.6389 H       1  UNL1        0.0000
     39 H           1.8197   -4.7762    0.2572 H       1  UNL1        0.0000
     40 H          -0.7802   -1.9196    2.9474 H       1  UNL1        0.0000
     41 H           2.5493   -2.0295    2.2547 H       1  UNL1        0.0000
     42 H          -1.0696   -3.5305   -0.0003 H       1  UNL1        0.0000
     43 H          -0.6408    0.6563   -3.2014 H       1  UNL1        0.0000
     44 H           2.1189   -0.1532   -2.0464 H       1  UNL1        0.0000
     45 H           0.4846   -2.2785   -2.1425 H       1  UNL1        0.0000
     46 H           1.3537    1.0137    2.0479 H       1  UNL1        0.0000
     47 H          -0.0060   -2.2186   -3.9573 H       1  UNL1        0.0000
     48 H           2.4544   -3.5848   -1.0656 H       1  UNL1        0.0000
     49 H           0.6114   -2.2963    3.6151 H       1  UNL1        0.0000
     50 H          -1.2438   -1.1426   -0.7235 H       1  UNL1        0.0000
     51 H          -1.2438   -1.1426   -0.7235 H       1  UNL1        0.0000
     52 H          -1.0727    2.3941   -2.3867 H       1  UNL1        0.0000
     53 H           2.2799   -2.1514   -2.0333 H       1  UNL1        0.0000
     54 H          -1.0375    2.2196   -0.7695 H       1  UNL1        0.0000
     55 H           0.2390   -1.5988   -0.1922 H       1  UNL1        0.0000
     56 H           3.0620    1.9323   -0.1568 H       1  UNL1        0.0000
     57 H           1.8017   -1.1104   -3.0631 H       1  UNL1        0.0000
     58 H          -3.4492   -0.6800   -2.2910 H       1  UNL1        0.0000
     59 H           1.6755   -0.5659    2.3944 H       1  UNL1        0.0000
     60 H          -2.5011    1.9789    1.4699 H       1  UNL1        0.0000
     61 H           2.7831    1.6864   -2.2076 H       1  UNL1        0.0000
     62 H           2.8323    2.4482   -1.6905 H       1  UNL1        0.0000
     63 H          -0.1894    1.2242    2.6084 H       1  UNL1        0.0000
     64 H           2.2987   -2.8667    0.8505 H       1  UNL1        0.0000
     65 H          -2.1196   -3.0646    1.2927 H       1  UNL1        0.0000
     66 H          -1.7799    1.0349    2.3322 H       1  UNL1        0.0000
     67 H           2.5260    1.7014    1.4673 H       1  UNL1        0.0000
     68 EU          1.2664    2.8205   -1.6728 Eu      1  UNL1        0.0000
@<TRIPOS>BOND
     1     1     2    2
     2     2     3   am
     3     3     4    1
     4     3     5    1
     5     5     6    1
     6     6     7    1
     7     2     8    1
     8     8     9   ar
     9     9    10   ar
    10     8    11   ar
    11    11    12   ar
    12    12    13   ar
    13    10    13   ar
    14    13    14   ar
    15    14    15   ar
    16    15    16   ar
    17    16    17   ar
    18    12    17   ar
    19    17    18   ar
    20    18    19   ar
    21    19    20    1
    22    20    21   ar
    23    21    22   ar
    24    22    23    1
    25    23    24    1
    26    23    25    1
    27    23    26    1
    28    26    27    1
    29    27    28    1
    30    28    29    1
    31    28    30    1
    32    22    31   ar
    33    28    31    1
    34    31    32   ar
    35    32    33   ar
    36    20    33   ar
    37    19    34   ar
    38    34    35   ar
    39    16    35   ar
    40     4    36    1
    41     4    37    1
    42     4    38    1
    43     5    39    1
    44     5    40    1
    45     6    41    1
    46     6    42    1
    47     7    43    1
    48     7    44    1
    49     7    45    1
    50     9    46    1
    51    10    47    1
    52    14    48    1
    53    15    49    1
    54    24    50    1
    55    24    51    1
    56    24    52    1
    57    25    53    1
    58    25    54    1
    59    25    55    1
    60    26    56    1
    61    26    57    1
    62    27    58    1
    63    27    59    1
    64    29    60    1
    65    29    61    1
    66    29    62    1
    67    30    63    1
    68    30    64    1
    69    30    65    1
    70    34    66    1
    71    35    67    1
    72    68     1    1
    73    68    33    1
    74    68    18    1
    75    68    11    1
@<TRIPOS>MOLECULE
*****
 68 75 0 0 0
SMALL
GASTEIGER

@<TRIPOS>ATOM
      1 O          -2.0112    0.3698   -2.2855 O.2     1  UNL1        0.0000
      2 C          -2.2682    0.6023   -1.6704 C.2     1  UNL1        0.0000
      3 N          -2.4356   -1.0748    1.8775 N.am    1  UNL1        0.0000
      4 C          -2.6732   -1.2299    3.1844 C.3     1  UNL1        0.0000
      5 C          -0.0386   -3.2656    2.2345 C.3     1  UNL1        0.0000
      6 C           0.9156   -2.3927    1.8601 C.3     1  UNL1        0.0000
      7 C           0.5729   -1.8096   -1.8252 C.3     1  UNL1        0.0000
      8 C           0.4848    2.6876   -1.4490 C.ar    1  UNL1        0.0000
      9 C           1.7094    1.1695   -0.9315 C.ar    1  UNL1        0.0000
     10 C           0.1972   -0.9608   -3.6970 C.ar    1  UNL1        0.0000
     11 N           0.9711    2.9341   -1.9195 N.ar    1  UNL1        0.0000
     12 C           1.0470    1.2292   -2.8776 C.ar    1  UNL1        0.0000
     13 C           0.1094   -0.9405   -3.6584 C.ar    1  UNL1        0.0000
     14 C           0.7585   -3.6526   -0.9973 C.ar    1  UNL1        0.0000
     15 C           0.7510   -3.2853    0.1293 C.ar    1  UNL1        0.0000
     16 C           2.1011   -1.4176   -0.2688 C.ar    1  UNL1        0.0000
     17 C           3.0403   -0.4718   -0.5715 C.ar    1  UNL1        0.0000
     18 N           2.8179    0.2936    0.4718 N.ar    1  UNL1        0.0000
     19 C           0.3499   -0.3806    1.3156 C.ar    1  UNL1        0.0000
     20 C          -0.7241   -0.2050    1.8696 C.ar    1  UNL1        0.0000
     21 N          -3.0012   -1.4322    0.2086 N.ar    1  UNL1        0.0000
     22 C          -3.1744   -0.9226   -0.5120 C.ar    1  UNL1        0.0000
     23 C          -1.4870   -1.3625   -1.2812 C.3     1  UNL1        0.0000
     24 C          -0.2639    0.3017   -1.2147 C.3     1  UNL1        0.0000
     25 C           0.0127    0.0700   -1.3086 C.3     1  UNL1        0.0000
     26 C          -0.0512    0.2918   -1.1837 C.3     1  UNL1        0.0000
     27 C          -1.7152    0.5452    0.3069 C.3     1  UNL1        0.0000
     28 C          -0.3299    1.5466    0.8089 C.3     1  UNL1        0.0000
     29 C           0.8164    2.2888    0.5500 C.3     1  UNL1        0.0000
     30 C          -0.9876   -2.0040    0.9744 C.3     1  UNL1        0.0000
     31 C          -2.7541    1.8784   -0.2382 C.ar    1  UNL1        0.0000
     32 N          -2.6931    3.1551   -0.1001 N.ar    1  UNL1        0.0000
     33 N          -1.3863    3.0799    0.8652 N.ar    1  UNL1        0.0000
     34 C           0.2673   -0.3358    1.1392 C.ar    1  UNL1        0.0000
     35 C           1.0549   -0.2777    0.6793 C.ar    1  UNL1        0.0000
     36 H          -3.0003   -0.3389    2.5917 H       1  UNL1        0.0000
     37 H          -2.2389   -2.8627    3.1193 H       1  UNL1        0.0000
     38 H          -1.5949   -0.1788    3.6389 H       1  UNL1        0.0000
     39 H           1.8197   -4.7762    0.2572 H       1  UNL1        0.0000
     40 H          -0.7802   -1.9196    2.9474 H       1  UNL1        0.0000
     41 H           2.5493   -2.0295    2.2547 H       1  UNL1        0.0000
     42 H          -1.0696   -3.5305   -0.0003 H       1  UNL1        0.0000
     43 H          -0.6408    0.6563   -3.2014 H       1  UNL1        0.0000
     44 H           2.1189   -0.1532   -2.0464 H       1  UNL1        0.0000
     45 H           0.4846   -2.2785   -2.1425 H       1  UNL1        0.0000
     46 H           1.3537    1.0137    2.0479 H       1  UNL1        0.0000
     47 H          -0.0060   -2.2186   -3.9573 H       1  UNL1        0.0000
     48 H           2.4544   -3.5848   -1.0656 H       1  UNL1        0.0000
     49 H           0.6114   -2.2963    3.6151 H       1  UNL1        0.0000
     50 H          -1.2438   -1.1426   -0.7235 H       1  UNL1        0.0000
     51 H          -1.2438   -1.1426   -0.7235 H       1  UNL1        0.0000
     52 H          -1.0727    2.3941   -2.3867 H       1  UNL1        0.0000
     53 H           2.2799   -2.1514   -2.0333 H       1  UNL1        0.0000
     54 H          -1.0375    2.2196   -0.7695 H       1  UNL1        0.0000
     55 H           0.2390   -1.5988   -0.1922 H       1  UNL1        0.0000
     56 H           3.0620    1.9323   -0.1568 H       1  UNL1        0.0000
     57 H           1.8017   -1.1104   -3.0631 H       1  UNL1        0.0000
     58 H          -3.4492   -0.6800   -2.2910 H       1  UNL1        0.0000
     59 H           1.6755   -0.5659    2.3944 H       1  UNL1        0.0000
     60 H          -2.5011    1.9789    1.4699 H       1  UNL1        0.0000
     61 H           2.7831    1.6864   -2.2076 H       1  UNL1        0.0000
     62 H           2.8323    2.4482   -1.6905 H       1  UNL1        0.0000
     63 H          -0.1894    1.2242    2.6084 H       1  UNL1        0.0000
     64 H           2.2987   -2.8667    0.8505 H       1  UNL1        0.0000
     65 H          -2.1196   -3.0646    1.2927 H       1  UNL1        0.0000
     66 H          -1.7799    1.0349    2.3322 H       1  UNL1        0.0000
     67 H           2.5260    1.7014    1.4673 H       1  UNL1        0.0000
     68 EU          1.2664    2.8205   -1.6728 Eu      1  UNL1        0.0000
@<TRIPOS>BOND
     1     1     2    2
     2     2     3   am
     3     3     4    1
     4     3     5    1
     5     5     6    1
     6     6     7    1
     7     2     8    1
     8     8     9   ar
     9     9    10   ar
    10     8    11   ar
    11    11    12   ar
    12    12    13   ar
    13    10    13   ar
    14    13    14   ar
    15    14    15   ar
    16    15    16   ar
    17    16    17   ar
    18    12    17   ar
    19    17    18   ar
    20    18    19   ar
    21    19    20    1
    22    20    21   ar
    23    21    22   ar
    24    22    23    1
    25    23    24    1
    26    23    25    1
    27    23    26    1
    28    26    27    1
    29    27    28    1
    30    28    29    1
    31    28    30    1
    32    22    31   ar
    33    28    31    1
    34    31    32   ar
    35    32    33   ar
    36    20    33   ar
    37    19    34   ar
    38    34    35   ar
    39    16    35   ar
    40     4    36    1
    41     4    37    1
    42     4    38    1
    43     5    39    1
    44     5    40    1
    45     6    41    1
    46     6    42    1
    47     7    43    1
    48     7    44    1
    49     7    45    1
    50     9    46    1
    51    10    47    1
    52    14    48    1
    53    15    49    1
    54    24    50    1
    55    24    51    1
    56    24    52    1
    57    25    53    1
    58    25    54    1
    59    25    55    1
    60    26    56    1
    61    26    57    1
    62    27    58    1
    63    27    59    1
    64    29    60    1
    65    29    61    1
    66    29    62    1
    67    30    63    1
    68    30    64    1
    69    30    65    1
    70    34    66    1
    71    35    67    1
    72    68     1    1
    73    68    33    1
    74    68    18    1
    75    68    11    1
@<TRIPOS>MOLECULE
*****
 68 75 0 0 0
SMALL
GASTEIGER

@<TRIPOS>ATOM
      1 O          -2.0112    0.3698   -2.2855 O.2     1  UNL1        0.0000
      2 C          -2.2682    0.6023   -1.6704 C.2     1  UNL1        0.0000
      3 N          -2.4356   -1.0748    1.8775 N.am    1  UNL1        0.0000
      4 C          -2.6732   -1.2299    3.1844 C.3     1  UNL1        0.0000
      5 C          -0.0386   -3.2656    2.2345 C.3     1  UNL1        0.0000
      6 C           0.9156   -2.3927    1.8601 C.3     1  UNL1        0.0000
      7 C           0.5729   -1.8096   -1.8252 C.3     1  UNL1        0.0000
      8 C           0.4848    2.6876   -1.4490 C.ar    1  UNL1        0.0000
      9 C           1.7094    1.1695   -0.9315 C.ar    1  UNL1        0.0000
     10 C           0.1972   -0.9608   -3.6970 C.ar    1  UNL1        0.0000
     11 N           0.9711    2.9341   -1.9195 N.ar    1  UNL1        0.0000
     12 C           1.0470    1.2292   -2.8776 C.ar    1  UNL1        0.0000
     13 C           0.1094   -0.9405   -3.6584 C.ar    1  UNL1        0.0000
     14 C           0.7585   -3.6526   -0.9973 C.ar    1  UNL1        0.0000
     15 C           0.7510   -3.2853    0.1293 C.ar    1  UNL1        0.0000
     16 C           2.1011   -1.4176   -0.2688 C.ar    1  UNL1        0.0000
     17 C           3.0403   -0.4718   -0.5715 C.ar    1  UNL1        0.0000
     18 N           2.8179    0.2936    0.4718 N.ar    1  UNL1        0.0000
     19 C           0.3499   -0.3806    1.3156 C.ar    1  UNL1        0.0000
     20 C          -0.7241   -0.2050    1.8696 C.ar    1  UNL1        0.0000
     21 N          -3.0012   -1.4322    0.2086 N.ar    1  UNL1        0.0000
     22 C          -3.1744   -0.9226   -0.5120 C.ar    1  UNL1        0.0000
     23 C          -1.4870   -1.3625   -1.2812 C.3     1  UNL1        0.0000
     24 C          -0.2639    0.3017   -1.2147 C.3     1  UNL1        0.0000
     25 C           0.0127    0.0700   -1.3086 C.3     1  UNL1        0.0000
     26 C          -0.0512    0.2918   -1.1837 C.3     1  UNL1        0.0000
     27 C          -1.7152    0.5452    0.3069 C.3     1  UNL1        0.0000
     28 C          -0.3299    1.5466    0.8089 C.3     1  UNL1        0.0000
     29 C           0.8164    2.2888    0.5500 C.3     1  UNL1        0.0000
     30 C          -0.9876   -2.0040    0.9744 C.3     1  UNL1        0.0000
     31 C          -2.7541    1.8784   -0.2382 C.ar    1  UNL1        0.0000
     32 N          -2.6931    3.1551   -0.1001 N.ar    1  UNL1        0.0000
     33 N          -1.3863    3.0799    0.8652 N.ar    1  UNL1        0.0000
     34 C           0.2673   -0.3358    1.1392 C.ar    1  UNL1        0.0000
     35 C           1.0549   -0.2777    0.6793 C.ar    1  UNL1        0.0000
     36 H          -3.0003   -0.3389    2.5917 H       1  UNL1        0.0000
     37 H          -2.2389   -2.8627    3.1193 H       1  UNL1        0.0000
     38 H          -1.5949   -0.1788    3.6389 H       1  UNL1        0.0000
     39 H           1.8197   -4.7762    0.2572 H       1  UNL1        0.0000
     40 H          -0.7802   -1.9196    2.9474 H       1  UNL1        0.0000
     41 H           2.5493   -2.0295    2.2547 H       1  UNL1        0.0000
     42 H          -1.0696   -3.5305   -0.0003 H       1  UNL1        0.0000
     43 H          -0.6408    0.6563   -3.2014 H       1  UNL1        0.0000
     44 H           2.1189   -0.1532   -2.0464 H       1  UNL1        0.0000
     45 H           0.4846   -2.2785   -2.1425 H       1  UNL1        0.0000
     46 H           1.3537    1.0137    2.0479 H       1  UNL1        0.0000
     47 H          -0.0060   -2.2186   -3.9573 H       1  UNL1        0.0000
     48 H           2.4544   -3.5848   -1.0656 H       1  UNL1        0.0000
     49 H           0.6114   -2.2963    3.6151 H       1  UNL1        0.0000
     50 H          -1.2438   -1.1426   -0.7235 H       1  UNL1        0.0000
     51 H          -1.2438   -1.1426   -0.7235 H       1  UNL1        0.0000
     52 H          -1.0727    2.3941   -2.3867 H       1  UNL1        0.0000
     53 H           2.2799   -2.1514   -2.0333 H       1  UNL1        0.0000
     54 H          -1.0375    2.2196   -0.7695 H       1  UNL1        0.0000
     55 H           0.2390   -1.5988   -0.1922 H       1  UNL1        0.0000
     56 H           3.0620    1.9323   -0.1568 H       1  UNL1        0.0000
     57 H           1.8017   -1.1104   -3.0631 H       1  UNL1        0.0000
     58 H          -3.4492   -0.6800   -2.2910 H       1  UNL1        0.0000
     59 H           1.6755   -0.5659    2.3944 H       1  UNL1        0.0000
     60 H          -2.5011    1.9789    1.4699 H       1  UNL1        0.0000
     61 H           2.7831    1.6864   -2.2076 H       1  UNL1        0.0000
     62 H           2.8323    2.4482   -1.6905 H       1  UNL1        0.0000
     63 H          -0.1894    1.2242    2.6084 H       1  UNL1        0.0000
     64 H           2.2987   -2.8667    0.8505 H       1  UNL1        0.0000
     65 H          -2.1196   -3.0646    1.2927 H       1  UNL1        0.0000
     66 H          -1.7799    1.0349    2.3322 H       1  UNL1        0.0000
     67 H           2.5260    1.7014    1.4673 H       1  UNL1        0.0000
     68 EU          1.2664    2.8205   -1.6728 Eu      1  UNL1        0.0000
@<TRIPOS>BOND
     1     1     2    2
     2     2     3   am
     3     3     4    1
     4     3     5    1
     5     5     6    1
     6     6     7    1
     7     2     8    1
     8     8     9   ar
     9     9    10   ar
    10     8    11   ar
    11    11    12   ar
    12    12    13   ar
    13    10    13   ar
    14    13    14   ar
    15    14    15   ar
    16    15    16   ar
    17    16    17   ar
    18    12    17   ar
    19    17    18   ar
    20    18    19   ar
    21    19    20    1
    22    20    21   ar
    23    21    22   ar
    24    22    23    1
    25    23    24    1
    26    23    25    1
    27    23    26    1
    28    26    27    1
    29    27    28    1
    30    28    29    1
    31    28    30    1
    32    22    31   ar
    33    28    31    1
    34    31    32   ar
    35    32    33   ar
    36    20    33   ar
    37    19    34   ar
    38    34    35   ar
    39    16    35   ar
    40     4    36    1
    41     4    37    1
    42     4    38    1
    43     5    39    1
    44     5    40    1
    45     6    41    1
    46     6    42    1
    47     7    43    1
    48     7    44    1
    49     7    45    1
    50     9    46    1
    51    10    47    1
    52    14    48    1
    53    15    49    1
    54    24    50    1
    55    24    51    1
    56    24    52    1
    57    25    53    1
    58    25    54    1
    59    25    55    1
    60    26    56    1
    61    26    57    1
    62    27    58    1
    63    27    59    1
    64    29    60    1
    65    29    61    1
    66    29    62    1
    67    30    63    1
    68    30    64    1
    69    30    65    1
    70    34    66    1
    71    35    67    1
    72    68     1    1
    73    68    33    1
    74    68    18    1
    75    68    11    1
@<TRIPOS>MOLECULE
*****
 68 75 0 0 0
SMALL
GASTEIGER

@<TRIPOS>ATOM
      1 O          -2.0112    0.3698   -2.2855 O.2     1  UNL1        0.0000
      2 C          -2.2682    0.6023   -1.6704 C.2     1  UNL1        0.0000
      3 N          -2.4356   -1.0748    1.8775 N.am    1  UNL1        0.0000
      4 C          -2.6732   -1.2299    3.1844 C.3     1  UNL1        0.0000
      5 C          -0.0386   -3.2656    2.2345 C.3     1  UNL1        0.0000
      6 C           0.9156   -2.3927    1.8601 C.3     1  UNL1        0.0000
      7 C           0.5729   -1.8096   -1.8252 C.3     1  UNL1        0.0000
      8 C           0.4848    2.6876   -1.4490 C.ar    1  UNL1        0.0000
      9 C           1.7094    1.1695   -0.9315 C.ar    1  UNL1        0.0000
     10 C           0.1972   -0.9608   -3.6970 C.ar    1  UNL1        0.0000
     11 N           0.9711    2.9341   -1.9195 N.ar    1  UNL1        0.0000
     12 C           1.0470    1.2292   -2.8776 C.ar    1  UNL1        0.0000
     13 C           0.1094   -0.9405   -3.6584 C.ar    1  UNL1        0.0000
     14 C           0.7585   -3.6526   -0.9973 C.ar    1  UNL1        0.0000
     15 C           0.7510   -3.2853    0.1293 C.ar    1  UNL1        0.0000
     16 C           2.1011   -1.4176   -0.2688 C.ar    1  UNL1        0.0000
     17 C           3.0403   -0.4718   -0.5715 C.ar    1  UNL1        0.0000
     18 N           2.8179    0.2936    0.4718 N.ar    1  UNL1        0.0000
     19 C           0.3499   -0.3806    1.3156 C.ar    1  UNL1        0.0000
     20 C          -0.7241   -0.2050    1.8696 C.ar    1  UNL1        0.0000
     21 N          -3.0012   -1.4322    0.2086 N.ar    1  UNL1        0.0000
     22 C          -3.1744   -0.9226   -0.5120 C.ar    1  UNL1        0.0000
     23 C          -1.4870   -1.3625   -1.2812 C.3     1  UNL1        0.0000
     24 C          -0.2639    0.3017   -1.2147 C.3     1  UNL1        0.0000
     25 C           0.0127    0.0700   -1.3086 C.3     1  UNL1        0.0000
     26 C          -0.0512    0.2918   -1.1837 C.3     1  UNL1        0.0000
     27 C          -1.7152    0.5452    0.3069 C.3     1  UNL1        0.0000
     28 C          -0.3299    1.5466    0.8089 C.3     1  UNL1        0.0000
     29 C           0.8164    2.2888    0.5500 C.3     1  UNL1        0.0000
     30 C          -0.9876   -2.0040    0.9744 C.3     1  UNL1        0.0000
     31 C          -2.7541    1.8784   -0.2382 C.ar    1  UNL1        0.0000
     32 N          -2.6931    3.1551   -0.1001 N.ar    1  UNL1        0.0000
     33 N          -1.3863    3.0799    0.8652 N.ar    1  UNL1        0.0000
     34 C           0.2673   -0.3358    1.1392 C.ar    1  UNL1        0.0000
     35 C           1.0549   -0.2777    0.6793 C.ar    1  UNL1        0.0000
     36 H          -3.0003   -0.3389    2.5917 H       1  UNL1        0.0000
     37 H          -2.2389   -2.8627    3.1193 H       1  UNL1        0.0000
     38 H          -1.5949   -0.1788    3.6389 H       1  UNL1        0.0000
     39 H           1.8197   -4.7762    0.2572 H       1  UNL1        0.0000
     40 H          -0.7802   -1.9196    2.9474 H       1  UNL1        0.0000
     41 H           2.5493   -2.0295    2.2547 H       1  UNL1        0.0000
     42 H          -1.0696   -3.5305   -0.0003 H       1  UNL1        0.0000
     43 H          -0.6408    0.6563   -3.2014 H       1  UNL1        0.0000
     44 H           2.1189   -0.1532   -2.0464 H       1  UNL1        0.0000
     45 H           0.4846   -2.2785   -2.1425 H       1  UNL1        0.0000
     46 H           1.3537    1.0137    2.0479 H       1  UNL1        0.0000
     47 H          -0.0060   -2.2186   -3.9573 H       1  UNL1        0.0000
     48 H           2.4544   -3.5848   -1.0656 H       1  UNL1        0.0000
     49 H           0.6114   -2.2963    3.6151 H       1  UNL1        0.0000
     50 H          -1.2438   -1.1426   -0.7235 H       1  UNL1        0.0000
     51 H          -1.2438   -1.1426   -0.7235 H       1  UNL1        0.0000
     52 H          -1.0727    2.3941   -2.3867 H       1  UNL1        0.0000
     53 H           2.2799   -2.1514   -2.0333 H       1  UNL1        0.0000
     54 H          -1.0375    2.2196   -0.7695 H       1  UNL1        0.0000
     55 H           0.2390   -1.5988   -0.1922 H       1  UNL1        0.0000
     56 H           3.0620    1.9323   -0.1568 H       1  UNL1        0.0000
     57 H           1.8017   -1.1104   -3.0631 H       1  UNL1        0.0000
     58 H          -3.4492   -0.6800   -2.2910 H       1  UNL1        0.0000
     59 H           1.6755   -0.5659    2.3944 H       1  UNL1        0.0000
     60 H          -2.5011    1.9789    1.4699 H       1  UNL1        0.0000
     61 H           2.7831    1.6864   -2.2076 H       1  UNL1        0.0000
     62 H           2.8323    2.4482   -1.6905 H       1  UNL1        0.0000
     63 H          -0.1894    1.2242    2.6084 H       1  UNL1        0.0000
     64 H           2.2987   -2.8667    0.8505 H       1  UNL1        0.0000
     65 H          -2.1196   -3.0646    1.2927 H       1  UNL1        0.0000
     66 H          -1.7799    1.0349    2.3322 H       1  UNL1        0.0000
     67 H           2.5260    1.7014    1.4673 H       1  UNL1        0.0000
     68 EU          1.2664    2.8205   -1.6728 Eu      1  UNL1        0.0000
@<TRIPOS>BOND
     1     1     2    2
     2     2     3   am
     3     3     4    1
     4     3     5    1
     5     5     6    1
     6     6     7    1
     7     2     8    1
     8     8     9   ar
     9     9    10   ar
    10     8    11   ar
    11    11    12   ar
    12    12    13   ar
    13    10    13   ar
    14    13    14   ar
    15    14    15   ar
    16    15    16   ar
    17    16    17   ar
    18    12    17   ar
    19    17    18   ar
    20    18    19   ar
    21    19    20    1
    22    20    21   ar
    23    21    22   ar
    24    22    23    1
    25    23    24    1
    26    23    25    1
    27    23    26    1
    28    26    27    1
    29    27    28    1
    30    28    29    1
    31    28    30    1
    32    22    31   ar
    33    28    31    1
    34    31    32   ar
    35    32    33   ar
    36    20    33   ar
    37    19    34   ar
    38    34    35   ar
    39    16    35   ar
    40     4    36    1
    41     4    37    1
    42     4    38    1
    43     5    39    1
    44     5    40    1
    45     6    41    1
    46     6    42    1
    47     7    43    1
    48     7    44    1
    49     7    45    1
    50     9    46    1
    51    10    47    1
    52    14    48    1
    53    15    49    1
    54    24    50    1
    55    24    51    1
    56    24    52    1
    57    25    53    1
    58    25    54    1
    59    25    55    1
    60    26    56    1
    61    26    57    1
    62    27    58    1
    63    27    59    1
    64    29    60    1
    65    29    61    1
    66    29    62    1
    67    30    63    1
    68    30    64    1
    69    30    65    1
    70    34    66    1
    71    35    67    1
    72    68     1    1
    73    68    33    1
    74    68    18    1
    75    68    11    1
@<TRIPOS>MOLECULE
*****
 68 75 0 0 0
SMALL
GASTEIGER

@<TRIPOS>ATOM
      1 O          -2.0112    0.3698   -2.2855 O.2     1  UNL1        0.0000
      2 C          -2.2682    0.6023   -1.6704 C.2     1  UNL1        0.0000
      3 N          -2.4356   -1.0748    1.8775 N.am    1  UNL1        0.0000
      4 C          -2.6732   -1.2299    3.1844 C.3     1  UNL1        0.0000
      5 C          -0.0386   -3.2656    2.2345 C.3     1  UNL1        0.0000
      6 C           0.9156   -2.3927    1.8601 C.3     1  UNL1        0.0000
      7 C           0.5729   -1.8096   -1.8252 C.3     1  UNL1        0.0000
      8 C           0.4848    2.6876   -1.4490 C.ar    1  UNL1        0.0000
      9 C           1.7094    1.1695   -0.9315 C.ar    1  UNL1        0.0000
     10 C           0.1972   -0.9608   -3.6970 C.ar    1  UNL1        0.0000
     11 N           0.9711    2.9341   -1.9195 N.ar    1  UNL1        0.0000
     12 C           1.0470    1.2292   -2.8776 C.ar    1  UNL1        0.0000
     13 C           0.1094   -0.9405   -3.6584 C.ar    1  UNL1        0.0000
     14 C           0.7585   -3.6526   -0.9973 C.ar    1  UNL1        0.0000
     15 C           0.7510   -3.2853    0.1293 C.ar    1  UNL1        0.0000
     16 C           2.1011   -1.4176   -0.2688 C.ar    1  UNL1        0.0000
     17 C           3.0403   -0.4718   -0.5715 C.ar    1  UNL1        0.0000
     18 N           2.8179    0.2936    0.4718 N.ar    1  UNL1        0.0000
     19 C           0.3499   -0.3806    1.3156 C.ar    1  UNL1        0.0000
     20 C          -0.7241   -0.2050    1.8696 C.ar    1  UNL1        0.0000
     21 N          -3.0012   -1.4322    0.2086 N.ar    1  UNL1        0.0000
     22 C          -3.1744   -0.9226   -0.5120 C.ar    1  UNL1        0.0000
     23 C          -1.4870   -1.3625   -1.2812 C.3     1  UNL1        0.0000
     24 C          -0.2639    0.3017   -1.2147 C.3     1  UNL1        0.0000
     25 C           0.0127    0.0700   -1.3086 C.3     1  UNL1        0.0000
     26 C          -0.0512    0.2918   -1.1837 C.3     1  UNL1        0.0000
     27 C          -1.7152    0.5452    0.3069 C.3     1  UNL1        0.0000
     28 C          -0.3299    1.5466    0.8089 C.3     1  UNL1        0.0000
     29 C           0.8164    2.2888    0.5500 C.3     1  UNL1        0.0000
     30 C          -0.9876   -2.0040    0.9744 C.3     1  UNL1        0.0000
     31 C          -2.7541    1.8784   -0.2382 C.ar    1  UNL1        0.0000
     32 N          -2.6931    3.1551   -0.1001 N.ar    1  UNL1        0.0000
     33 N          -1.3863    3.0799    0.8652 N.ar    1  UNL1        0.0000
     34 C           0.2673   -0.3358    1.1392 C.ar    1  UNL1        0.0000
     35 C           1.0549   -0.2777    0.6793 C.ar    1  UNL1        0.0000
     36 H          -3.0003   -0.3389    2.5917 H       1  UNL1        0.0000
     37 H          -2.2389   -2.8627    3.1193 H       1  UNL1        0.0000
     38 H          -1.5949   -0.1788    3.6389 H       1  UNL1        0.0000
     39 H           1.8197   -4.7762    0.2572 H       1  UNL1        0.0000
     40 H          -0.7802   -1.9196    2.9474 H       1  UNL1        0.0000
     41 H           2.5493   -2.0295    2.2547 H       1  UNL1        0.0000
     42 H          -1.0696   -3.5305   -0.0003 H       1  UNL1        0.0000
     43 H          -0.6408    0.6563   -3.2014 H       1  UNL1        0.0000
     44 H           2.1189   -0.1532   -2.0464 H       1  UNL1        0.0000
     45 H           0.4846   -2.2785   -2.1425 H       1  UNL1        0.0000
     46 H           1.3537    1.0137    2.0479 H       1  UNL1        0.0000
     47 H          -0.0060   -2.2186   -3.9573 H       1  UNL1        0.0000
     48 H           2.4544   -3.5848   -1.0656 H       1  UNL1        0.0000
     49 H           0.6114   -2.2963    3.6151 H       1  UNL1        0.0000
     50 H          -1.2438   -1.1426   -0.7235 H       1  UNL1        0.0000
     51 H          -1.2438   -1.1426   -0.7235 H       1  UNL1        0.0000
     52 H          -1.0727    2.3941   -2.3867 H       1  UNL1        0.0000
     53 H           2.2799   -2.1514   -2.0333 H       1  UNL1        0.0000
     54 H          -1.0375    2.2196   -0.7695 H       1  UNL1        0.0000
     55 H           0.2390   -1.5988   -0.1922 H       1  UNL1        0.0000
     56 H           3.0620    1.9323   -0.1568 H       1  UNL1        0.0000
     57 H           1.8017   -1.1104   -3.0631 H       1  UNL1        0.0000
     58 H          -3.4492   -0.6800   -2.2910 H       1  UNL1        0.0000
     59 H           1.6755   -0.5659    2.3944 H       1  UNL1        0.0000
     60 H          -2.5011    1.9789    1.4699 H       1  UNL1        0.0000
     61 H           2.7831    1.6864   -2.2076 H       1  UNL1        0.0000
     62 H           2.8323    2.4482   -1.6905 H       1  UNL1        0.0000
     63 H          -0.1894    1.2242    2.6084 H       1  UNL1        0.0000
     64 H           2.2987   -2.8667    0.8505 H       1  UNL1        0.0000
     65 H          -2.1196   -3.0646    1.2927 H       1  UNL1        0.0000
     66 H          -1.7799    1.0349    2.3322 H       1  UNL1        0.0000
     67 H           2.5260    1.7014    1.4673 H       1  UNL1        0.0000
     68 EU          1.2664    2.8205   -1.6728 Eu      1  UNL1        0.0000
@<TRIPOS>BOND
     1     1     2    2
     2     2     3   am
     3     3     4    1
     4     3     5    1
     5     5     6    1
     6     6     7    1
     7     2     8    1
     8     8     9   ar
     9     9    10   ar
    10     8    11   ar
    11    11    12   ar
    12    12    13   ar
    13    10    13   ar
    14    13    14   ar
    15    14    15   ar
    16    15    16   ar
    17    16    17   ar
    18    12    17   ar
    19    17    18   ar
    20    18    19   ar
    21    19    20    1
    22    20    21   ar
    23    21    22   ar
    24    22    23    1
    25    23    24    1
    26    23    25    1
    27    23    26    1
    28    26    27    1
    29    27    28    1
    30    28    29    1
    31    28    30    1
    32    22    31   ar
    33    28    31    1
    34    31    32   ar
    35    32    33   ar
    36    20    33   ar
    37    19    34   ar
    38    34    35   ar
    39    16    35   ar
    40     4    36    1
    41     4    37    1
    42     4    38    1
    43     5    39    1
    44     5    40    1
    45     6    41    1
    46     6    42    1
    47     7    43    1
    48     7    44    1
    49     7    45    1
    50     9    46    1
    51    10    47    1
    52    14    48    1
    53    15    49    1
    54    24    50    1
    55    24    51    1
    56    24    52    1
    57    25    53    1
    58    25    54    1
    59    25    55    1
    60    26    56    1
    61    26    57    1
    62    27    58    1
    63    27    59    1
    64    29    60    1
    65    29    61    1
    66    29    62    1
    67    30    63    1
    68    30    64    1
    69    30    65    1
    70    34    66    1
    71    35    67    1
    72    68     1    1
    73    68    33    1
    74    68    18    1
    75    68    11    1
@<TRIPOS>MOLECULE
*****
 68 75 0 0 0
SMALL
GASTEIGER

@<TRIPOS>ATOM
      1 O          -2.0112    0.3698   -2.2855 O.2     1  UNL1        0.0000
      2 C          -2.2682    0.6023   -1.6704 C.2     1  UNL1        0.0000
      3 N          -2.4356   -1.0748    1.8775 N.am    1  UNL1        0.0000
      4 C          -2.6732   -1.2299    3.1844 C.3     1  UNL1        0.0000
      5 C          -0.0386   -3.2656    2.2345 C.3     1  UNL1        0.0000
      6 C           0.9156   -2.3927    1.8601 C.3     1  UNL1        0.0000
      7 C           0.5729   -1.8096   -1.8252 C.3     1  UNL1        0.0000
      8 C           0.4848    2.6876   -1.4490 C.ar    1  UNL1        0.0000
      9 C           1.7094    1.1695   -0.9315 C.ar    1  UNL1        0.0000
     10 C           0.1972   -0.9608   -3.6970 C.ar    1  UNL1        0.0000
     11 N           0.9711    2.9341   -1.9195 N.ar    1  UNL1        0.0000
     12 C           1.0470    1.2292   -2.8776 C.ar    1  UNL1        0.0000
     13 C           0.1094   -0.9405   -3.6584 C.ar    1  UNL1        0.0000
     14 C           0.7585   -3.6526   -0.9973 C.ar    1  UNL1        0.0000
     15 C           0.7510   -3.2853    0.1293 C.ar    1  UNL1        0.0000
     16 C           2.1011   -1.4176   -0.2688 C.ar    1  UNL1        0.0000
     17 C           3.0403   -0.4718   -0.5715 C.ar    1  UNL1        0.0000
     18 N           2.8179    0.2936    0.4718 N.ar    1  UNL1        0.0000
     19 C           0.3499   -0.3806    1.3156 C.ar    1  UNL1        0.0000
     20 C          -0.7241   -0.2050    1.8696 C.ar    1  UNL1        0.0000
     21 N          -3.0012   -1.4322    0.2086 N.ar    1  UNL1        0.0000
     22 C          -3.1744   -0.9226   -0.5120 C.ar    1  UNL1        0.0000
     23 C          -1.4870   -1.3625   -1.2812 C.3     1  UNL1        0.0000
     24 C          -0.2639    0.3017   -1.2147 C.3     1  UNL1        0.0000
     25 C           0.0127    0.0700   -1.3086 C.3     1  UNL1        0.0000
     26 C          -0.0512    0.2918   -1.1837 C.3     1  UNL1        0.0000
     27 C          -1.7152    0.5452    0.3069 C.3     1  UNL1        0.0000
     28 C          -0.3299    1.5466    0.8089 C.3     1  UNL1        0.0000
     29 C           0.8164    2.2888    0.5500 C.3     1  UNL1        0.0000
     30 C          -0.9876   -2.0040    0.9744 C.3     1  UNL1        0.0000
     31 C          -2.7541    1.8784   -0.2382 C.ar    1  UNL1        0.0000
     32 N          -2.6931    3.1551   -0.1001 N.ar    1  UNL1        0.0000
     33 N          -1.3863    3.0799    0.8652 N.ar    1  UNL1        0.0000
     34 C           0.2673   -0.3358    1.1392 C.ar    1  UNL1        0.0000
     35 C           1.0549   -0.2777    0.6793 C.ar    1  UNL1        0.0000
     36 H          -3.0003   -0.3389    2.5917 H       1  UNL1        0.0000
     37 H          -2.2389   -2.8627    3.1193 H       1  UNL1        0.0000
     38 H          -1.5949   -0.1788    3.6389 H       1  UNL1        0.0000
     39 H           1.8197   -4.7762    0.2572 H       1  UNL1        0.0000
     40 H          -0.7802   -1.9196    2.9474 H       1  UNL1        0.0000
     41 H           2.5493   -2.0295    2.2547 H       1  UNL1        0.0000
     42 H          -1.0696   -3.5305   -0.0003 H       1  UNL1        0.0000
     43 H          -0.6408    0.6563   -3.2014 H       1  UNL1        0.0000
     44 H           2.1189   -0.1532   -2.0464 H       1  UNL1        0.0000
     45 H           0.4846   -2.2785   -2.1425 H       1  UNL1        0.0000
     46 H           1.3537    1.0137    2.0479 H       1  UNL1        0.0000
     47 H          -0.0060   -2.2186   -3.9573 H       1  UNL1        0.0000
     48 H           2.4544   -3.5848   -1.0656 H       1  UNL1        0.0000
     49 H           0.6114   -2.2963    3.6151 H       1  UNL1        0.0000
     50 H          -1.2438   -1.1426   -0.7235 H       1  UNL1        0.0000
     51 H          -1.2438   -1.1426   -0.7235 H       1  UNL1        0.0000
     52 H          -1.0727    2.3941   -2.3867 H       1  UNL1        0.0000
     53 H           2.2799   -2.1514   -2.0333 H       1  UNL1        0.0000
     54 H          -1.0375    2.2196   -0.7695 H       1  UNL1        0.0000
     55 H           0.2390   -1.5988   -0.1922 H       1  UNL1        0.0000
     56 H           3.0620    1.9323   -0.1568 H       1  UNL1        0.0000
     57 H           1.8017   -1.1104   -3.0631 H       1  UNL1        0.0000
     58 H          -3.4492   -0.6800   -2.2910 H       1  UNL1        0.0000
     59 H           1.6755   -0.5659    2.3944 H       1  UNL1        0.0000
     60 H          -2.5011    1.9789    1.4699 H       1  UNL1        0.0000
     61 H           2.7831    1.6864   -2.2076 H       1  UNL1        0.0000
     62 H           2.8323    2.4482   -1.6905 H       1  UNL1        0.0000
     63 H          -0.1894    1.2242    2.6084 H       1  UNL1        0.0000
     64 H           2.2987   -2.8667    0.8505 H       1  UNL1        0.0000
     65 H          -2.1196   -3.0646    1.2927 H       1  UNL1        0.0000
     66 H          -1.7799    1.0349    2.3322 H       1  UNL1        0.0000
     67 H           2.5260    1.7014    1.4673 H       1  UNL1        0.0000
     68 EU          1.2664    2.8205   -1.6728 Eu      1  UNL1        0.0000
@<TRIPOS>BOND
     1     1     2    2
     2     2     3   am
     3     3     4    1
     4     3     5    1
     5     5     6    1
     6     6     7    1
     7     2     8    1
     8     8     9   ar
     9     9    10   ar
    10     8    11   ar
    11    11    12   ar
    12    12    13   ar
    13    10    13   ar
    14    13    14   ar
    15    14    15   ar
    16    15    16   ar
    17    16    17   ar
    18    12    17   ar
    19    17    18   ar
    20    18    19   ar
    21    19    20    1
    22    20    21   ar
    23    21    22   ar
    24    22    23    1
    25    23    24    1
    26    23    25    1
    27    23    26    1
    28    26    27    1
    29    27    28    1
    30    28    29    1
    31    28    30    1
    32    22    31   ar
    33    28    31    1
    34    31    32   ar
    35    32    33   ar
    36    20    33   ar
    37    19    34   ar
    38    34    35   ar
    39    16    35   ar
    40     4    36    1
    41     4    37    1
    42     4    38    1
    43     5    39    1
    44     5    40    1
    45     6    41    1
    46     6    42    1
    47     7    43    1
    48     7    44    1
    49     7    45    1
    50     9    46    1
    51    10    47    1
    52    14    48    1
    53    15    49    1
    54    24    50    1
    55    24    51    1
    56    24    52    1
    57    25    53    1
    58    25    54    1
    59    25    55    1
    60    26    56    1
    61    26    57    1
    62    27    58    1
    63    27    59    1
    64    29    60    1
    65    29    61    1
    66    29    62    1
    67    30    63    1
    68    30    64    1
    69    30    65    1
    70    34    66    1
    71    35    67    1
    72    68     1    1
    73    68    33    1
    74    68    18    1
    75    68    11    1
@<TRIPOS>MOLECULE
*****
 68 75 0 0 0
SMALL
GASTEIGER

@<TRIPOS>ATOM
      1 O          -2.0112    0.3698   -2.2855 O.2     1  UNL1        0.0000
      2 C          -2.2682    0.6023   -1.6704 C.2     1  UNL1        0.0000
      3 N          -2.4356   -1.0748    1.8775 N.am    1  UNL1        0.0000
      4 C          -2.6732   -1.2299    3.1844 C.3     1  UNL1        0.0000
      5 C          -0.0386   -3.2656    2.2345 C.3     1  UNL1        0.0000
      6 C           0.9156   -2.3927    1.8601 C.3     1  UNL1        0.0000
      7 C           0.5729   -1.8096   -1.8252 C.3     1  UNL1        0.0000
      8 C           0.4848    2.6876   -1.4490 C.ar    1  UNL1        0.0000
      9 C           1.7094    1.1695   -0.9315 C.ar    1  UNL1        0.0000
     10 C           0.1972   -0.9608   -3.6970 C.ar    1  UNL1        0.0000
     11 N           0.9711    2.9341   -1.9195 N.ar    1  UNL1        0.0000
     12 C           1.0470    1.2292   -2.8776 C.ar    1  UNL1        0.0000
     13 C           0.1094   -0.9405   -3.6584 C.ar    1  UNL1        0.0000
     14 C           0.7585   -3.6526   -0.9973 C.ar    1  UNL1        0.0000
     15 C           0.7510   -3.2853    0.1293 C.ar    1  UNL1        0.0000
     16 C           2.1011   -1.4176   -0.2688 C.ar    1  UNL1        0.0000
     17 C           3.0403   -0.4718   -0.5715 C.ar    1  UNL1        0.0000
     18 N           2.8179    0.2936    0.4718 N.ar    1  UNL1        0.0000
     19 C           0.3499   -0.3806    1.3156 C.ar    1  UNL1        0.0000
     20 C          -0.7241   -0.2050    1.8696 C.ar    1  UNL1        0.0000
     21 N          -3.0012   -1.4322    0.2086 N.ar    1  UNL1        0.0000
     22 C          -3.1744   -0.9226   -0.5120 C.ar    1  UNL1        0.0000
     23 C          -1.4870   -1.3625   -1.2812 C.3     1  UNL1        0.0000
     24 C          -0.2639    0.3017   -1.2147 C.3     1  UNL1        0.0000
     25 C           0.0127    0.0700   -1.3086 C.3     1  UNL1        0.0000
     26 C          -0.0512    0.2918   -1.1837 C.3     1  UNL1        0.0000
     27 C          -1.7152    0.5452    0.3069 C.3     1  UNL1        0.0000
     28 C          -0.3299    1.5466    0.8089 C.3     1  UNL1        0.0000
     29 C           0.8164    2.2888    0.5500 C.3     1  UNL1        0.0000
     30 C          -0.9876   -2.0040    0.9744 C.3     1  UNL1        0.0000
     31 C          -2.7541    1.8784   -0.2382 C.ar    1  UNL1        0.0000
     32 N          -2.6931    3.1551   -0.1001 N.ar    1  UNL1        0.0000
     33 N          -1.3863    3.0799    0.8652 N.ar    1  UNL1        0.0000
     34 C           0.2673   -0.3358    1.1392 C.ar    1  UNL1        0.0000
     35 C           1.0549   -0.2777    0.6793 C.ar    1  UNL1        0.0000
     36 H          -3.0003   -0.3389    2.5917 H       1  UNL1        0.0000
     37 H          -2.2389   -2.8627    3.1193 H       1  UNL1        0.0000
     38 H          -1.5949   -0.1788    3.6389 H       1  UNL1        0.0000
     39 H           1.8197   -4.7762    0.2572 H       1  UNL1        0.0000
     40 H          -0.7802   -1.9196    2.9474 H       1  UNL1        0.0000
     41 H           2.5493   -2.0295    2.2547 H       1  UNL1        0.0000
     42 H          -1.0696   -3.5305   -0.0003 H       1  UNL1        0.0000
     43 H          -0.6408    0.6563   -3.2014 H       1  UNL1        0.0000
     44 H           2.1189   -0.1532   -2.0464 H       1  UNL1        0.0000
     45 H           0.4846   -2.2785   -2.1425 H       1  UNL1        0.0000
     46 H           1.3537    1.0137    2.0479 H       1  UNL1        0.0000
     47 H          -0.0060   -2.2186   -3.9573 H       1  UNL1        0.0000
     48 H           2.4544   -3.5848   -1.0656 H       1  UNL1        0.0000
     49 H           0.6114   -2.2963    3.6151 H       1  UNL1        0.0000
     50 H          -1.2438   -1.1426   -0.7235 H       1  UNL1        0.0000
     51 H          -1.2438   -1.1426   -0.7235 H       1  UNL1        0.0000
     52 H          -1.0727    2.3941   -2.3867 H       1  UNL1        0.0000
     53 H           2.2799   -2.1514   -2.0333 H       1  UNL1        0.0000
     54 H          -1.0375    2.2196   -0.7695 H       1  UNL1        0.0000
     55 H           0.2390   -1.5988   -0.1922 H       1  UNL1        0.0000
     56 H           3.0620    1.9323   -0.1568 H       1  UNL1        0.0000
     57 H           1.8017   -1.1104   -3.0631 H       1  UNL1        0.0000
     58 H          -3.4492   -0.6800   -2.2910 H       1  UNL1        0.0000
     59 H           1.6755   -0.5659    2.3944 H       1  UNL1        0.0000
     60 H          -2.5011    1.9789    1.4699 H       1  UNL1        0.0000
     61 H           2.7831    1.6864   -2.2076 H       1  UNL1        0.0000
     62 H           2.8323    2.4482   -1.6905 H       1  UNL1        0.0000
     63 H          -0.1894    1.2242    2.6084 H       1  UNL1        0.0000
     64 H           2.2987   -2.8667    0.8505 H       1  UNL1        0.0000
     65 H          -2.1196   -3.0646    1.2927 H       1  UNL1        0.0000
     66 H          -1.7799    1.0349    2.3322 H       1  UNL1        0.0000
     67 H           2.5260    1.7014    1.4673 H       1  UNL1        0.0000
     68 EU          1.2664    2.8205   -1.6728 Eu      1  UNL1        0.0000
@<TRIPOS>BOND
     1     1     2    2
     2     2     3   am
     3     3     4    1
     4     3     5    1
     5     5     6    1
     6     6     7    1
     7     2     8    1
     8     8     9   ar
     9     9    10   ar
    10     8    11   ar
    11    11    12   ar
    12    12    13   ar
    13    10    13   ar
    14    13    14   ar
    15    14    15   ar
    16    15    16   ar
    17    16    17   ar
    18    12    17   ar
    19    17    18   ar
    20    18    19   ar
    21    19    20    1
    22    20    21   ar
    23    21    22   ar
    24    22    23    1
    25    23    24    1
    26    23    25    1
    27    23    26    1
    28    26    27    1
    29    27    28    1
    30    28    29    1
    31    28    30    1
    32    22    31   ar
    33    28    31    1
    34    31    32   ar
    35    32    33   ar
    36    20    33   ar
    37    19    34   ar
    38    34    35   ar
    39    16    35   ar
    40     4    36    1
    41     4    37    1
    42     4    38    1
    43     5    39    1
    44     5    40    1
    45     6    41    1
    46     6    42    1
    47     7    43    1
    48     7    44    1
    49     7    45    1
    50     9    46    1
    51    10    47    1
    52    14    48    1
    53    15    49    1
    54    24    50    1
    55    24    51    1
    56    24    52    1
    57    25    53    1
    58    25    54    1
    59    25    55    1
    60    26    56    1
    61    26    57    1
    62    27    58    1
    63    27    59    1
    64    29    60    1
    65    29    61    1
    66    29    62    1
    67    30    63    1
    68    30    64    1
    69    30    65    1
    70    34    66    1
    71    35    67    1
    72    68     1    1
    73    68    33    1
    74    68    18    1
    75    68    11    1
@<TRIPOS>MOLECULE
*****
 68 75 0 0 0
SMALL
GASTEIGER

@<TRIPOS>ATOM
      1 O          -2.0112    0.3698   -2.2855 O.2     1  UNL1        0.0000
      2 C          -2.2682    0.6023   -1.6704 C.2     1  UNL1        0.0000
      3 N          -2.4356   -1.0748    1.8775 N.am    1  UNL1        0.0000
      4 C          -2.6732   -1.2299    3.1844 C.3     1  UNL1        0.0000
      5 C          -0.0386   -3.2656    2.2345 C.3     1  UNL1        0.0000
      6 C           0.9156   -2.3927    1.8601 C.3     1  UNL1        0.0000
      7 C           0.5729   -1.8096   -1.8252 C.3     1  UNL1        0.0000
      8 C           0.4848    2.6876   -1.4490 C.ar    1  UNL1        0.0000
      9 C           1.7094    1.1695   -0.9315 C.ar    1  UNL1        0.0000
     10 C           0.1972   -0.9608   -3.6970 C.ar    1  UNL1        0.0000
     11 N           0.9711    2.9341   -1.9195 N.ar    1  UNL1        0.0000
     12 C           1.0470    1.2292   -2.8776 C.ar    1  UNL1        0.0000
     13 C           0.1094   -0.9405   -3.6584 C.ar    1  UNL1        0.0000
     14 C           0.7585   -3.6526   -0.9973 C.ar    1  UNL1        0.0000
     15 C           0.7510   -3.2853    0.1293 C.ar    1  UNL1        0.0000
     16 C           2.1011   -1.4176   -0.2688 C.ar    1  UNL1        0.0000
     17 C           3.0403   -0.4718   -0.5715 C.ar    1  UNL1        0.0000
     18 N           2.8179    0.2936    0.4718 N.ar    1  UNL1        0.0000
     19 C           0.3499   -0.3806    1.3156 C.ar    1  UNL1        0.0000
     20 C          -0.7241   -0.2050    1.8696 C.ar    1  UNL1        0.0000
     21 N          -3.0012   -1.4322    0.2086 N.ar    1  UNL1        0.0000
     22 C          -3.1744   -0.9226   -0.5120 C.ar    1  UNL1        0.0000
     23 C          -1.4870   -1.3625   -1.2812 C.3     1  UNL1        0.0000
     24 C          -0.2639    0.3017   -1.2147 C.3     1  UNL1        0.0000
     25 C           0.0127    0.0700   -1.3086 C.3     1  UNL1        0.0000
     26 C          -0.0512    0.2918   -1.1837 C.3     1  UNL1        0.0000
     27 C          -1.7152    0.5452    0.3069 C.3     1  UNL1        0.0000
     28 C          -0.3299    1.5466    0.8089 C.3     1  UNL1        0.0000
     29 C           0.8164    2.2888    0.5500 C.3     1  UNL1        0.0000
     30 C          -0.9876   -2.0040    0.9744 C.3     1  UNL1        0.0000
     31 C          -2.7541    1.8784   -0.2382 C.ar    1  UNL1        0.0000
     32 N          -2.6931    3.1551   -0.1001 N.ar    1  UNL1        0.0000
     33 N          -1.3863    3.0799    0.8652 N.ar    1  UNL1        0.0000
     34 C           0.2673   -0.3358    1.1392 C.ar    1  UNL1        0.0000
     35 C           1.0549   -0.2777    0.6793 C.ar    1  UNL1        0.0000
     36 H          -3.0003   -0.3389    2.5917 H       1  UNL1        0.0000
     37 H          -2.2389   -2.8627    3.1193 H       1  UNL1        0.0000
     38 H          -1.5949   -0.1788    3.6389 H       1  UNL1        0.0000
     39 H           1.8197   -4.7762    0.2572 H       1  UNL1        0.0000
     40 H          -0.7802   -1.9196    2.9474 H       1  UNL1        0.0000
     41 H           2.5493   -2.0295    2.2547 H       1  UNL1        0.0000
     42 H          -1.0696   -3.5305   -0.0003 H       1  UNL1        0.0000
     43 H          -0.6408    0.6563   -3.2014 H       1  UNL1        0.0000
     44 H           2.1189   -0.1532   -2.0464 H       1  UNL1        0.0000
     45 H           0.4846   -2.2785   -2.1425 H       1  UNL1        0.0000
     46 H           1.3537    1.0137    2.0479 H       1  UNL1        0.0000
     47 H          -0.0060   -2.2186   -3.9573 H       1  UNL1        0.0000
     48 H           2.4544   -3.5848   -1.0656 H       1  UNL1        0.0000
     49 H           0.6114   -2.2963    3.6151 H       1  UNL1        0.0000
     50 H          -1.2438   -1.1426   -0.7235 H       1  UNL1        0.0000
     51 H          -1.2438   -1.1426   -0.7235 H       1  UNL1        0.0000
     52 H          -1.0727    2.3941   -2.3867 H       1  UNL1        0.0000
     53 H           2.2799   -2.1514   -2.0333 H       1  UNL1        0.0000
     54 H          -1.0375    2.2196   -0.7695 H       1  UNL1        0.0000
     55 H           0.2390   -1.5988   -0.1922 H       1  UNL1        0.0000
     56 H           3.0620    1.9323   -0.1568 H       1  UNL1        0.0000
     57 H           1.8017   -1.1104   -3.0631 H       1  UNL1        0.0000
     58 H          -3.4492   -0.6800   -2.2910 H       1  UNL1        0.0000
     59 H           1.6755   -0.5659    2.3944 H       1  UNL1        0.0000
     60 H          -2.5011    1.9789    1.4699 H       1  UNL1        0.0000
     61 H           2.7831    1.6864   -2.2076 H       1  UNL1        0.0000
     62 H           2.8323    2.4482   -1.6905 H       1  UNL1        0.0000
     63 H          -0.1894    1.2242    2.6084 H       1  UNL1        0.0000
     64 H           2.2987   -2.8667    0.8505 H       1  UNL1        0.0000
     65 H          -2.1196   -3.0646    1.2927 H       1  UNL1        0.0000
     66 H          -1.7799    1.0349    2.3322 H       1  UNL1        0.0000
     67 H           2.5260    1.7014    1.4673 H       1  UNL1        0.0000
     68 EU          1.2664    2.8205   -1.6728 Eu      1  UNL1        0.0000
@<TRIPOS>BOND
     1     1     2    2
     2     2     3   am
     3     3     4    1
     4     3     5    1
     5     5     6    1
     6     6     7    1
     7     2     8    1
     8     8     9   ar
     9     9    10   ar
    10     8    11   ar
    11    11    12   ar
    12    12    13   ar
    13    10    13   ar
    14    13    14   ar
    15    14    15   ar
    16    15    16   ar
    17    16    17   ar
    18    12    17   ar
    19    17    18   ar
    20    18    19   ar
    21    19    20    1
    22    20    21   ar
    23    21    22   ar
    24    22    23    1
    25    23    24    1
    26    23    25    1
    27    23    26    1
    28    26    27    1
    29    27    28    1
    30    28    29    1
    31    28    30    1
    32    22    31   ar
    33    28    31    1
    34    31    32   ar
    35    32    33   ar
    36    20    33   ar
    37    19    34   ar
    38    34    35   ar
    39    16    35   ar
    40     4    36    1
    41     4    37    1
    42     4    38    1
    43     5    39    1
    44     5    40    1
    45     6    41    1
    46     6    42    1
    47     7    43    1
    48     7    44    1
    49     7    45    1
    50     9    46    1
    51    10    47    1
    52    14    48    1
    53    15    49    1
    54    24    50    1
    55    24    51    1
    56    24    52    1
    57    25    53    1
    58    25    54    1
    59    25    55    1
    60    26    56    1
    61    26    57    1
    62    27    58    1
    63    27    59    1
    64    29    60    1
    65    29    61    1
    66    29    62    1
    67    30    63    1
    68    30    64    1
    69    30    65    1
    70    34    66    1
    71    35    67    1
    72    68     1    1
    73    68    33    1
    74    68    18    1
    75    68    11    1
@<TRIPOS>MOLECULE
*****
 68 75 0 0 0
SMALL
GASTEIGER

@<TRIPOS>ATOM
      1 O          -2.0112    0.3698   -2.2855 O.2     1  UNL1        0.0000
      2 C          -2.2682    0.6023   -1.6704 C.2     1  UNL1        0.0000
      3 N          -2.4356   -1.0748    1.8775 N.am    1  UNL1        0.0000
      4 C          -2.6732   -1.2299    3.1844 C.3     1  UNL1        0.0000
      5 C          -0.0386   -3.2656    2.2345 C.3     1  UNL1        0.0000
      6 C           0.9156   -2.3927    1.8601 C.3     1  UNL1        0.0000
      7 C           0.5729   -1.8096   -1.8252 C.3     1  UNL1        0.0000
      8 C           0.4848    2.6876   -1.4490 C.ar    1  UNL1        0.0000
      9 C           1.7094    1.1695   -0.9315 C.ar    1  UNL1        0.0000
     10 C           0.1972   -0.9608   -3.6970 C.ar    1  UNL1        0.0000
     11 N           0.9711    2.9341   -1.9195 N.ar    1  UNL1        0.0000
     12 C           1.0470    1.2292   -2.8776 C.ar    1  UNL1        0.0000
     13 C           0.1094   -0.9405   -3.6584 C.ar    1  UNL1        0.0000
     14 C           0.7585   -3.6526   -0.9973 C.ar    1  UNL1        0.0000
     15 C           0.7510   -3.2853    0.1293 C.ar    1  UNL1        0.0000
     16 C           2.1011   -1.4176   -0.2688 C.ar    1  UNL1        0.0000
     17 C           3.0403   -0.4718   -0.5715 C.ar    1  UNL1        0.0000
     18 N           2.8179    0.2936    0.4718 N.ar    1  UNL1        0.0000
     19 C           0.3499   -0.3806    1.3156 C.ar    1  UNL1        0.0000
     20 C          -0.7241   -0.2050    1.8696 C.ar    1  UNL1        0.0000
     21 N          -3.0012   -1.4322    0.2086 N.ar    1  UNL1        0.0000
     22 C          -3.1744   -0.9226   -0.5120 C.ar    1  UNL1        0.0000
     23 C          -1.4870   -1.3625   -1.2812 C.3     1  UNL1        0.0000
     24 C          -0.2639    0.3017   -1.2147 C.3     1  UNL1        0.0000
     25 C           0.0127    0.0700   -1.3086 C.3     1  UNL1        0.0000
     26 C          -0.0512    0.2918   -1.1837 C.3     1  UNL1        0.0000
     27 C          -1.7152    0.5452    0.3069 C.3     1  UNL1        0.0000
     28 C          -0.3299    1.5466    0.8089 C.3     1  UNL1        0.0000
     29 C           0.8164    2.2888    0.5500 C.3     1  UNL1        0.0000
     30 C          -0.9876   -2.0040    0.9744 C.3     1  UNL1        0.0000
     31 C          -2.7541    1.8784   -0.2382 C.ar    1  UNL1        0.0000
     32 N          -2.6931    3.1551   -0.1001 N.ar    1  UNL1        0.0000
     33 N          -1.3863    3.0799    0.8652 N.ar    1  UNL1        0.0000
     34 C           0.2673   -0.3358    1.1392 C.ar    1  UNL1        0.0000
     35 C           1.0549   -0.2777    0.6793 C.ar    1  UNL1        0.0000
     36 H          -3.0003   -0.3389    2.5917 H       1  UNL1        0.0000
     37 H          -2.2389   -2.8627    3.1193 H       1  UNL1        0.0000
     38 H          -1.5949   -0.1788    3.6389 H       1  UNL1        0.0000
     39 H           1.8197   -4.7762    0.2572 H       1  UNL1        0.0000
     40 H          -0.7802   -1.9196    2.9474 H       1  UNL1        0.0000
     41 H           2.5493   -2.0295    2.2547 H       1  UNL1        0.0000
     42 H          -1.0696   -3.5305   -0.0003 H       1  UNL1        0.0000
     43 H          -0.6408    0.6563   -3.2014 H       1  UNL1        0.0000
     44 H           2.1189   -0.1532   -2.0464 H       1  UNL1        0.0000
     45 H           0.4846   -2.2785   -2.1425 H       1  UNL1        0.0000
     46 H           1.3537    1.0137    2.0479 H       1  UNL1        0.0000
     47 H          -0.0060   -2.2186   -3.9573 H       1  UNL1        0.0000
     48 H           2.4544   -3.5848   -1.0656 H       1  UNL1        0.0000
     49 H           0.6114   -2.2963    3.6151 H       1  UNL1        0.0000
     50 H          -1.2438   -1.1426   -0.7235 H       1  UNL1        0.0000
     51 H          -1.2438   -1.1426   -0.7235 H       1  UNL1        0.0000
     52 H          -1.0727    2.3941   -2.3867 H       1  UNL1        0.0000
     53 H           2.2799   -2.1514   -2.0333 H       1  UNL1        0.0000
     54 H          -1.0375    2.2196   -0.7695 H       1  UNL1        0.0000
     55 H           0.2390   -1.5988   -0.1922 H       1  UNL1        0.0000
     56 H           3.0620    1.9323   -0.1568 H       1  UNL1        0.0000
     57 H           1.8017   -1.1104   -3.0631 H       1  UNL1        0.0000
     58 H          -3.4492   -0.6800   -2.2910 H       1  UNL1        0.0000
     59 H           1.6755   -0.5659    2.3944 H       1  UNL1        0.0000
     60 H          -2.5011    1.9789    1.4699 H       1  UNL1        0.0000
     61 H           2.7831    1.6864   -2.2076 H       1  UNL1        0.0000
     62 H           2.8323    2.4482   -1.6905 H       1  UNL1        0.0000
     63 H          -0.1894    1.2242    2.6084 H       1  UNL1        0.0000
     64 H           2.2987   -2.8667    0.8505 H       1  UNL1        0.0000
     65 H          -2.1196   -3.0646    1.2927 H       1  UNL1        0.0000
     66 H          -1.7799    1.0349    2.3322 H       1  UNL1        0.0000
     67 H           2.5260    1.7014    1.4673 H       1  UNL1        0.0000
     68 EU          1.2664    2.8205   -1.6728 Eu      1  UNL1        0.0000
@<TRIPOS>BOND
     1     1     2    2
     2     2     3   am
     3     3     4    1
     4     3     5    1
     5     5     6    1
     6     6     7    1
     7     2     8    1
     8     8     9   ar
     9     9    10   ar
    10     8    11   ar
    11    11    12   ar
    12    12    13   ar
    13    10    13   ar
    14    13    14   ar
    15    14    15   ar
    16    15    16   ar
    17    16    17   ar
    18    12    17   ar
    19    17    18   ar
    20    18    19   ar
    21    19    20    1
    22    20    21   ar
    23    21    22   ar
    24    22    23    1
    25    23    24    1
    26    23    25    1
    27    23    26    1
    28    26    27    1
    29    27    28    1
    30    28    29    1
    31    28    30    1
    32    22    31   ar
    33    28    31    1
    34    31    32   ar
    35    32    33   ar
    36    20    33   ar
    37    19    34   ar
    38    34    35   ar
    39    16    35   ar
    40     4    36    1
    41     4    37    1
    42     4    38    1
    43     5    39    1
    44     5    40    1
    45     6    41    1
    46     6    42    1
    47     7    43    1
    48     7    44    1
    49     7    45    1
    50     9    46    1
    51    10    47    1
    52    14    48    1
    53    15    49    1
    54    24    50    1
    55    24    51    1
    56    24    52    1
    57    25    53    1
    58    25    54    1
    59    25    55    1
    60    26    56    1
    61    26    57    1
    62    27    58    1
    63    27    59    1
    64    29    60    1
    65    29    61    1
    66    29    62    1
    67    30    63    1
    68    30    64    1
    69    30    65    1
    70    34    66    1
    71    35    67    1
    72    68     1    1
    73    68    33    1
    74    68    18    1
    75    68    11    1
@<TRIPOS>MOLECULE
*****
 68 75 0 0 0
SMALL
GASTEIGER

@<TRIPOS>ATOM
      1 O          -2.0112    0.3698   -2.2855 O.2     1  UNL1        0.0000
      2 C          -2.2682    0.6023   -1.6704 C.2     1  UNL1        0.0000
      3 N          -2.4356   -1.0748    1.8775 N.am    1  UNL1        0.0000
      4 C          -2.6732   -1.2299    3.1844 C.3     1  UNL1        0.0000
      5 C          -0.0386   -3.2656    2.2345 C.3     1  UNL1        0.0000
      6 C           0.9156   -2.3927    1.8601 C.3     1  UNL1        0.0000
      7 C           0.5729   -1.8096   -1.8252 C.3     1  UNL1        0.0000
      8 C           0.4848    2.6876   -1.4490 C.ar    1  UNL1        0.0000
      9 C           1.7094    1.1695   -0.9315 C.ar    1  UNL1        0.0000
     10 C           0.1972   -0.9608   -3.6970 C.ar    1  UNL1        0.0000
     11 N           0.9711    2.9341   -1.9195 N.ar    1  UNL1        0.0000
     12 C           1.0470    1.2292   -2.8776 C.ar    1  UNL1        0.0000
     13 C           0.1094   -0.9405   -3.6584 C.ar    1  UNL1        0.0000
     14 C           0.7585   -3.6526   -0.9973 C.ar    1  UNL1        0.0000
     15 C           0.7510   -3.2853    0.1293 C.ar    1  UNL1        0.0000
     16 C           2.1011   -1.4176   -0.2688 C.ar    1  UNL1        0.0000
     17 C           3.0403   -0.4718   -0.5715 C.ar    1  UNL1        0.0000
     18 N           2.8179    0.2936    0.4718 N.ar    1  UNL1        0.0000
     19 C           0.3499   -0.3806    1.3156 C.ar    1  UNL1        0.0000
     20 C          -0.7241   -0.2050    1.8696 C.ar    1  UNL1        0.0000
     21 N          -3.0012   -1.4322    0.2086 N.ar    1  UNL1        0.0000
     22 C          -3.1744   -0.9226   -0.5120 C.ar    1  UNL1        0.0000
     23 C          -1.4870   -1.3625   -1.2812 C.3     1  UNL1        0.0000
     24 C          -0.2639    0.3017   -1.2147 C.3     1  UNL1        0.0000
     25 C           0.0127    0.0700   -1.3086 C.3     1  UNL1        0.0000
     26 C          -0.0512    0.2918   -1.1837 C.3     1  UNL1        0.0000
     27 C          -1.7152    0.5452    0.3069 C.3     1  UNL1        0.0000
     28 C          -0.3299    1.5466    0.8089 C.3     1  UNL1        0.0000
     29 C           0.8164    2.2888    0.5500 C.3     1  UNL1        0.0000
     30 C          -0.9876   -2.0040    0.9744 C.3     1  UNL1        0.0000
     31 C          -2.7541    1.8784   -0.2382 C.ar    1  UNL1        0.0000
     32 N          -2.6931    3.1551   -0.1001 N.ar    1  UNL1        0.0000
     33 N          -1.3863    3.0799    0.8652 N.ar    1  UNL1        0.0000
     34 C           0.2673   -0.3358    1.1392 C.ar    1  UNL1        0.0000
     35 C           1.0549   -0.2777    0.6793 C.ar    1  UNL1        0.0000
     36 H          -3.0003   -0.3389    2.5917 H       1  UNL1        0.0000
     37 H          -2.2389   -2.8627    3.1193 H       1  UNL1        0.0000
     38 H          -1.5949   -0.1788    3.6389 H       1  UNL1        0.0000
     39 H           1.8197   -4.7762    0.2572 H       1  UNL1        0.0000
     40 H          -0.7802   -1.9196    2.9474 H       1  UNL1        0.0000
     41 H           2.5493   -2.0295    2.2547 H       1  UNL1        0.0000
     42 H          -1.0696   -3.5305   -0.0003 H       1  UNL1        0.0000
     43 H          -0.6408    0.6563   -3.2014 H       1  UNL1        0.0000
     44 H           2.1189   -0.1532   -2.0464 H       1  UNL1        0.0000
     45 H           0.4846   -2.2785   -2.1425 H       1  UNL1        0.0000
     46 H           1.3537    1.0137    2.0479 H       1  UNL1        0.0000
     47 H          -0.0060   -2.2186   -3.9573 H       1  UNL1        0.0000
     48 H           2.4544   -3.5848   -1.0656 H       1  UNL1        0.0000
     49 H           0.6114   -2.2963    3.6151 H       1  UNL1        0.0000
     50 H          -1.2438   -1.1426   -0.7235 H       1  UNL1        0.0000
     51 H          -1.2438   -1.1426   -0.7235 H       1  UNL1        0.0000
     52 H          -1.0727    2.3941   -2.3867 H       1  UNL1        0.0000
     53 H           2.2799   -2.1514   -2.0333 H       1  UNL1        0.0000
     54 H          -1.0375    2.2196   -0.7695 H       1  UNL1        0.0000
     55 H           0.2390   -1.5988   -0.1922 H       1  UNL1        0.0000
     56 H           3.0620    1.9323   -0.1568 H       1  UNL1        0.0000
     57 H           1.8017   -1.1104   -3.0631 H       1  UNL1        0.0000
     58 H          -3.4492   -0.6800   -2.2910 H       1  UNL1        0.0000
     59 H           1.6755   -0.5659    2.3944 H       1  UNL1        0.0000
     60 H          -2.5011    1.9789    1.4699 H       1  UNL1        0.0000
     61 H           2.7831    1.6864   -2.2076 H       1  UNL1        0.0000
     62 H           2.8323    2.4482   -1.6905 H       1  UNL1        0.0000
     63 H          -0.1894    1.2242    2.6084 H       1  UNL1        0.0000
     64 H           2.2987   -2.8667    0.8505 H       1  UNL1        0.0000
     65 H          -2.1196   -3.0646    1.2927 H       1  UNL1        0.0000
     66 H          -1.7799    1.0349    2.3322 H       1  UNL1        0.0000
     67 H           2.5260    1.7014    1.4673 H       1  UNL1        0.0000
     68 EU          1.2664    2.8205   -1.6728 Eu      1  UNL1        0.0000
@<TRIPOS>BOND
     1     1     2    2
     2     2     3   am
     3     3     4    1
     4     3     5    1
     5     5     6    1
     6     6     7    1
     7     2     8    1
     8     8     9   ar
     9     9    10   ar
    10     8    11   ar
    11    11    12   ar
    12    12    13   ar
    13    10    13   ar
    14    13    14   ar
    15    14    15   ar
    16    15    16   ar
    17    16    17   ar
    18    12    17   ar
    19    17    18   ar
    20    18    19   ar
    21    19    20    1
    22    20    21   ar
    23    21    22   ar
    24    22    23    1
    25    23    24    1
    26    23    25    1
    27    23    26    1
    28    26    27    1
    29    27    28    1
    30    28    29    1
    31    28    30    1
    32    22    31   ar
    33    28    31    1
    34    31    32   ar
    35    32    33   ar
    36    20    33   ar
    37    19    34   ar
    38    34    35   ar
    39    16    35   ar
    40     4    36    1
    41     4    37    1
    42     4    38    1
    43     5    39    1
    44     5    40    1
    45     6    41    1
    46     6    42    1
    47     7    43    1
    48     7    44    1
    49     7    45    1
    50     9    46    1
    51    10    47    1
    52    14    48    1
    53    15    49    1
    54    24    50    1
    55    24    51    1
    56    24    52    1
    57    25    53    1
    58    25    54    1
    59    25    55    1
    60    26    56    1
    61    26    57    1
    62    27    58    1
    63    27    59    1
    64    29    60    1
    65    29    61    1
    66    29    62    1
    67    30    63    1
    68    30    64    1
    69    30    65    1
    70    34    66    1
    71    35    67    1
    72    68     1    1
    73    68    33    1
    74    68    18    1
    75    68    11    1
@<TRIPOS>MOLECULE
*****
 68 75 0 0 0
SMALL
GASTEIGER

@<TRIPOS>ATOM
      1 O          -2.0112    0.3698   -2.2855 O.2     1  UNL1        0.0000
      2 C          -2.2682    0.6023   -1.6704 C.2     1  UNL1        0.0000
      3 N          -2.4356   -1.0748    1.8775 N.am    1  UNL1        0.0000
      4 C          -2.6732   -1.2299    3.1844 C.3     1  UNL1        0.0000
      5 C          -0.0386   -3.2656    2.2345 C.3     1  UNL1        0.0000
      6 C           0.9156   -2.3927    1.8601 C.3     1  UNL1        0.0000
      7 C           0.5729   -1.8096   -1.8252 C.3     1  UNL1        0.0000
      8 C           0.4848    2.6876   -1.4490 C.ar    1  UNL1        0.0000
      9 C           1.7094    1.1695   -0.9315 C.ar    1  UNL1        0.0000
     10 C           0.1972   -0.9608   -3.6970 C.ar    1  UNL1        0.0000
     11 N           0.9711    2.9341   -1.9195 N.ar    1  UNL1        0.0000
     12 C           1.0470    1.2292   -2.8776 C.ar    1  UNL1        0.0000
     13 C           0.1094   -0.9405   -3.6584 C.ar    1  UNL1        0.0000
     14 C           0.7585   -3.6526   -0.9973 C.ar    1  UNL1        0.0000
     15 C           0.7510   -3.2853    0.1293 C.ar    1  UNL1        0.0000
     16 C           2.1011   -1.4176   -0.2688 C.ar    1  UNL1        0.0000
     17 C           3.0403   -0.4718   -0.5715 C.ar    1  UNL1        0.0000
     18 N           2.8179    0.2936    0.4718 N.ar    1  UNL1        0.0000
     19 C           0.3499   -0.3806    1.3156 C.ar    1  UNL1        0.0000
     20 C          -0.7241   -0.2050    1.8696 C.ar    1  UNL1        0.0000
     21 N          -3.0012   -1.4322    0.2086 N.ar    1  UNL1        0.0000
     22 C          -3.1744   -0.9226   -0.5120 C.ar    1  UNL1        0.0000
     23 C          -1.4870   -1.3625   -1.2812 C.3     1  UNL1        0.0000
     24 C          -0.2639    0.3017   -1.2147 C.3     1  UNL1        0.0000
     25 C           0.0127    0.0700   -1.3086 C.3     1  UNL1        0.0000
     26 C          -0.0512    0.2918   -1.1837 C.3     1  UNL1        0.0000
     27 C          -1.7152    0.5452    0.3069 C.3     1  UNL1        0.0000
     28 C          -0.3299    1.5466    0.8089 C.3     1  UNL1        0.0000
     29 C           0.8164    2.2888    0.5500 C.3     1  UNL1        0.0000
     30 C          -0.9876   -2.0040    0.9744 C.3     1  UNL1        0.0000
     31 C          -2.7541    1.8784   -0.2382 C.ar    1  UNL1        0.0000
     32 N          -2.6931    3.1551   -0.1001 N.ar    1  UNL1        0.0000
     33 N          -1.3863    3.0799    0.8652 N.ar    1  UNL1        0.0000
     34 C           0.2673   -0.3358    1.1392 C.ar    1  UNL1        0.0000
     35 C           1.0549   -0.2777    0.6793 C.ar    1  UNL1        0.0000
     36 H          -3.0003   -0.3389    2.5917 H       1  UNL1        0.0000
     37 H          -2.2389   -2.8627    3.1193 H       1  UNL1        0.0000
     38 H          -1.5949   -0.1788    3.6389 H       1  UNL1        0.0000
     39 H           1.8197   -4.7762    0.2572 H       1  UNL1        0.0000
     40 H          -0.7802   -1.9196    2.9474 H       1  UNL1        0.0000
     41 H           2.5493   -2.0295    2.2547 H       1  UNL1        0.0000
     42 H          -1.0696   -3.5305   -0.0003 H       1  UNL1        0.0000
     43 H          -0.6408    0.6563   -3.2014 H       1  UNL1        0.0000
     44 H           2.1189   -0.1532   -2.0464 H       1  UNL1        0.0000
     45 H           0.4846   -2.2785   -2.1425 H       1  UNL1        0.0000
     46 H           1.3537    1.0137    2.0479 H       1  UNL1        0.0000
     47 H          -0.0060   -2.2186   -3.9573 H       1  UNL1        0.0000
     48 H           2.4544   -3.5848   -1.0656 H       1  UNL1        0.0000
     49 H           0.6114   -2.2963    3.6151 H       1  UNL1        0.0000
     50 H          -1.2438   -1.1426   -0.7235 H       1  UNL1        0.0000
     51 H          -1.2438   -1.1426   -0.7235 H       1  UNL1        0.0000
     52 H          -1.0727    2.3941   -2.3867 H       1  UNL1        0.0000
     53 H           2.2799   -2.1514   -2.0333 H       1  UNL1        0.0000
     54 H          -1.0375    2.2196   -0.7695 H       1  UNL1        0.0000
     55 H           0.2390   -1.5988   -0.1922 H       1  UNL1        0.0000
     56 H           3.0620    1.9323   -0.1568 H       1  UNL1        0.0000
     57 H           1.8017   -1.1104   -3.0631 H       1  UNL1        0.0000
     58 H          -3.4492   -0.6800   -2.2910 H       1  UNL1        0.0000
     59 H           1.6755   -0.5659    2.3944 H       1  UNL1        0.0000
     60 H          -2.5011    1.9789    1.4699 H       1  UNL1        0.0000
     61 H           2.7831    1.6864   -2.2076 H       1  UNL1        0.0000
     62 H           2.8323    2.4482   -1.6905 H       1  UNL1        0.0000
     63 H          -0.1894    1.2242    2.6084 H       1  UNL1        0.0000
     64 H           2.2987   -2.8667    0.8505 H       1  UNL1        0.0000
     65 H          -2.1196   -3.0646    1.2927 H       1  UNL1        0.0000
     66 H          -1.7799    1.0349    2.3322 H       1  UNL1        0.0000
     67 H           2.5260    1.7014    1.4673 H       1  UNL1        0.0000
     68 EU          1.2664    2.8205   -1.6728 Eu      1  UNL1        0.0000
@<TRIPOS>BOND
     1     1     2    2
     2     2     3   am
     3     3     4    1
     4     3     5    1
     5     5     6    1
     6     6     7    1
     7     2     8    1
     8     8     9   ar
     9     9    10   ar
    10     8    11   ar
    11    11    12   ar
    12    12    13   ar
    13    10    13   ar
    14    13    14   ar
    15    14    15   ar
    16    15    16   ar
    17    16    17   ar
    18    12    17   ar
    19    17    18   ar
    20    18    19   ar
    21    19    20    1
    22    20    21   ar
    23    21    22   ar
    24    22    23    1
    25    23    24    1
    26    23    25    1
    27    23    26    1
    28    26    27    1
    29    27    28    1
    30    28    29    1
    31    28    30    1
    32    22    31   ar
    33    28    31    1
    34    31    32   ar
    35    32    33   ar
    36    20    33   ar
    37    19    34   ar
    38    34    35   ar
    39    16    35   ar
    40     4    36    1
    41     4    37    1
    42     4    38    1
    43     5    39    1
    44     5    40    1
    45     6    41    1
    46     6    42    1
    47     7    43    1
    48     7    44    1
    49     7    45    1
    50     9    46    1
    51    10    47    1
    52    14    48    1
    53    15    49    1
    54    24    50    1
    55    24    51    1
    56    24    52    1
    57    25    53    1
    58    25    54    1
    59    25    55    1
    60    26    56    1
    61    26    57    1
    62    27    58    1
    63    27    59    1
    64    29    60    1
    65    29    61    1
    66    29    62    1
    67    30    63    1
    68    30    64    1
    69    30    65    1
    70    34    66    1
    71    35    67    1
    72    68     1    1
    73    68    33    1
    74    68    18    1
    75    68    11    1
@<TRIPOS>MOLECULE
*****
 68 75 0 0 0
SMALL
GASTEIGER

@<TRIPOS>ATOM
      1 O          -2.0112    0.3698   -2.2855 O.2     1  UNL1        0.0000
      2 C          -2.2682    0.6023   -1.6704 C.2     1  UNL1        0.0000
      3 N          -2.4356   -1.0748    1.8775 N.am    1  UNL1        0.0000
      4 C          -2.6732   -1.2299    3.1844 C.3     1  UNL1        0.0000
      5 C          -0.0386   -3.2656    2.2345 C.3     1  UNL1        0.0000
      6 C           0.9156   -2.3927    1.8601 C.3     1  UNL1        0.0000
      7 C           0.5729   -1.8096   -1.8252 C.3     1  UNL1        0.0000
      8 C           0.4848    2.6876   -1.4490 C.ar    1  UNL1        0.0000
      9 C           1.7094    1.1695   -0.9315 C.ar    1  UNL1        0.0000
     10 C           0.1972   -0.9608   -3.6970 C.ar    1  UNL1        0.0000
     11 N           0.9711    2.9341   -1.9195 N.ar    1  UNL1        0.0000
     12 C           1.0470    1.2292   -2.8776 C.ar    1  UNL1        0.0000
     13 C           0.1094   -0.9405   -3.6584 C.ar    1  UNL1        0.0000
     14 C           0.7585   -3.6526   -0.9973 C.ar    1  UNL1        0.0000
     15 C           0.7510   -3.2853    0.1293 C.ar    1  UNL1        0.0000
     16 C           2.1011   -1.4176   -0.2688 C.ar    1  UNL1        0.0000
     17 C           3.0403   -0.4718   -0.5715 C.ar    1  UNL1        0.0000
     18 N           2.8179    0.2936    0.4718 N.ar    1  UNL1        0.0000
     19 C           0.3499   -0.3806    1.3156 C.ar    1  UNL1        0.0000
     20 C          -0.7241   -0.2050    1.8696 C.ar    1  UNL1        0.0000
     21 N          -3.0012   -1.4322    0.2086 N.ar    1  UNL1        0.0000
     22 C          -3.1744   -0.9226   -0.5120 C.ar    1  UNL1        0.0000
     23 C          -1.4870   -1.3625   -1.2812 C.3     1  UNL1        0.0000
     24 C          -0.2639    0.3017   -1.2147 C.3     1  UNL1        0.0000
     25 C           0.0127    0.0700   -1.3086 C.3     1  UNL1        0.0000
     26 C          -0.0512    0.2918   -1.1837 C.3     1  UNL1        0.0000
     27 C          -1.7152    0.5452    0.3069 C.3     1  UNL1        0.0000
     28 C          -0.3299    1.5466    0.8089 C.3     1  UNL1        0.0000
     29 C           0.8164    2.2888    0.5500 C.3     1  UNL1        0.0000
     30 C          -0.9876   -2.0040    0.9744 C.3     1  UNL1        0.0000
     31 C          -2.7541    1.8784   -0.2382 C.ar    1  UNL1        0.0000
     32 N          -2.6931    3.1551   -0.1001 N.ar    1  UNL1        0.0000
     33 N          -1.3863    3.0799    0.8652 N.ar    1  UNL1        0.0000
     34 C           0.2673   -0.3358    1.1392 C.ar    1  UNL1        0.0000
     35 C           1.0549   -0.2777    0.6793 C.ar    1  UNL1        0.0000
     36 H          -3.0003   -0.3389    2.5917 H       1  UNL1        0.0000
     37 H          -2.2389   -2.8627    3.1193 H       1  UNL1        0.0000
     38 H          -1.5949   -0.1788    3.6389 H       1  UNL1        0.0000
     39 H           1.8197   -4.7762    0.2572 H       1  UNL1        0.0000
     40 H          -0.7802   -1.9196    2.9474 H       1  UNL1        0.0000
     41 H           2.5493   -2.0295    2.2547 H       1  UNL1        0.0000
     42 H          -1.0696   -3.5305   -0.0003 H       1  UNL1        0.0000
     43 H          -0.6408    0.6563   -3.2014 H       1  UNL1        0.0000
     44 H           2.1189   -0.1532   -2.0464 H       1  UNL1        0.0000
     45 H           0.4846   -2.2785   -2.1425 H       1  UNL1        0.0000
     46 H           1.3537    1.0137    2.0479 H       1  UNL1        0.0000
     47 H          -0.0060   -2.2186   -3.9573 H       1  UNL1        0.0000
     48 H           2.4544   -3.5848   -1.0656 H       1  UNL1        0.0000
     49 H           0.6114   -2.2963    3.6151 H       1  UNL1        0.0000
     50 H          -1.2438   -1.1426   -0.7235 H       1  UNL1        0.0000
     51 H          -1.2438   -1.1426   -0.7235 H       1  UNL1        0.0000
     52 H          -1.0727    2.3941   -2.3867 H       1  UNL1        0.0000
     53 H           2.2799   -2.1514   -2.0333 H       1  UNL1        0.0000
     54 H          -1.0375    2.2196   -0.7695 H       1  UNL1        0.0000
     55 H           0.2390   -1.5988   -0.1922 H       1  UNL1        0.0000
     56 H           3.0620    1.9323   -0.1568 H       1  UNL1        0.0000
     57 H           1.8017   -1.1104   -3.0631 H       1  UNL1        0.0000
     58 H          -3.4492   -0.6800   -2.2910 H       1  UNL1        0.0000
     59 H           1.6755   -0.5659    2.3944 H       1  UNL1        0.0000
     60 H          -2.5011    1.9789    1.4699 H       1  UNL1        0.0000
     61 H           2.7831    1.6864   -2.2076 H       1  UNL1        0.0000
     62 H           2.8323    2.4482   -1.6905 H       1  UNL1        0.0000
     63 H          -0.1894    1.2242    2.6084 H       1  UNL1        0.0000
     64 H           2.2987   -2.8667    0.8505 H       1  UNL1        0.0000
     65 H          -2.1196   -3.0646    1.2927 H       1  UNL1        0.0000
     66 H          -1.7799    1.0349    2.3322 H       1  UNL1        0.0000
     67 H           2.5260    1.7014    1.4673 H       1  UNL1        0.0000
     68 EU          1.2664    2.8205   -1.6728 Eu      1  UNL1        0.0000
@<TRIPOS>BOND
     1     1     2    2
     2     2     3   am
     3     3     4    1
     4     3     5    1
     5     5     6    1
     6     6     7    1
     7     2     8    1
     8     8     9   ar
     9     9    10   ar
    10     8    11   ar
    11    11    12   ar
    12    12    13   ar
    13    10    13   ar
    14    13    14   ar
    15    14    15   ar
    16    15    16   ar
    17    16    17   ar
    18    12    17   ar
    19    17    18   ar
    20    18    19   ar
    21    19    20    1
    22    20    21   ar
    23    21    22   ar
    24    22    23    1
    25    23    24    1
    26    23    25    1
    27    23    26    1
    28    26    27    1
    29    27    28    1
    30    28    29    1
    31    28    30    1
    32    22    31   ar
    33    28    31    1
    34    31    32   ar
    35    32    33   ar
    36    20    33   ar
    37    19    34   ar
    38    34    35   ar
    39    16    35   ar
    40     4    36    1
    41     4    37    1
    42     4    38    1
    43     5    39    1
    44     5    40    1
    45     6    41    1
    46     6    42    1
    47     7    43    1
    48     7    44    1
    49     7    45    1
    50     9    46    1
    51    10    47    1
    52    14    48    1
    53    15    49    1
    54    24    50    1
    55    24    51    1
    56    24    52    1
    57    25    53    1
    58    25    54    1
    59    25    55    1
    60    26    56    1
    61    26    57    1
    62    27    58    1
    63    27    59    1
    64    29    60    1
    65    29    61    1
    66    29    62    1
    67    30    63    1
    68    30    64    1
    69    30    65    1
    70    34    66    1
    71    35    67    1
    72    68     1    1
    73    68    33    1
    74    68    18    1
    75    68    11    1
@<TRIPOS>MOLECULE
*****
 68 75 0 0 0
SMALL
GASTEIGER

@<TRIPOS>ATOM
      1 O          -2.0112    0.3698   -2.2855 O.2     1  UNL1        0.0000
      2 C          -2.2682    0.6023   -1.6704 C.2     1  UNL1        0.0000
      3 N          -2.4356   -1.0748    1.8775 N.am    1  UNL1        0.0000
      4 C          -2.6732   -1.2299    3.1844 C.3     1  UNL1        0.0000
      5 C          -0.0386   -3.2656    2.2345 C.3     1  UNL1        0.0000
      6 C           0.9156   -2.3927    1.8601 C.3     1  UNL1        0.0000
      7 C           0.5729   -1.8096   -1.8252 C.3     1  UNL1        0.0000
      8 C           0.4848    2.6876   -1.4490 C.ar    1  UNL1        0.0000
      9 C           1.7094    1.1695   -0.9315 C.ar    1  UNL1        0.0000
     10 C           0.1972   -0.9608   -3.6970 C.ar    1  UNL1        0.0000
     11 N           0.9711    2.9341   -1.9195 N.ar    1  UNL1        0.0000
     12 C           1.0470    1.2292   -2.8776 C.ar    1  UNL1        0.0000
     13 C           0.1094   -0.9405   -3.6584 C.ar    1  UNL1        0.0000
     14 C           0.7585   -3.6526   -0.9973 C.ar    1  UNL1        0.0000
     15 C           0.7510   -3.2853    0.1293 C.ar    1  UNL1        0.0000
     16 C           2.1011   -1.4176   -0.2688 C.ar    1  UNL1        0.0000
     17 C           3.0403   -0.4718   -0.5715 C.ar    1  UNL1        0.0000
     18 N           2.8179    0.2936    0.4718 N.ar    1  UNL1        0.0000
     19 C           0.3499   -0.3806    1.3156 C.ar    1  UNL1        0.0000
     20 C          -0.7241   -0.2050    1.8696 C.ar    1  UNL1        0.0000
     21 N          -3.0012   -1.4322    0.2086 N.ar    1  UNL1        0.0000
     22 C          -3.1744   -0.9226   -0.5120 C.ar    1  UNL1        0.0000
     23 C          -1.4870   -1.3625   -1.2812 C.3     1  UNL1        0.0000
     24 C          -0.2639    0.3017   -1.2147 C.3     1  UNL1        0.0000
     25 C           0.0127    0.0700   -1.3086 C.3     1  UNL1        0.0000
     26 C          -0.0512    0.2918   -1.1837 C.3     1  UNL1        0.0000
     27 C          -1.7152    0.5452    0.3069 C.3     1  UNL1        0.0000
     28 C          -0.3299    1.5466    0.8089 C.3     1  UNL1        0.0000
     29 C           0.8164    2.2888    0.5500 C.3     1  UNL1        0.0000
     30 C          -0.9876   -2.0040    0.9744 C.3     1  UNL1        0.0000
     31 C          -2.7541    1.8784   -0.2382 C.ar    1  UNL1        0.0000
     32 N          -2.6931    3.1551   -0.1001 N.ar    1  UNL1        0.0000
     33 N          -1.3863    3.0799    0.8652 N.ar    1  UNL1        0.0000
     34 C           0.2673   -0.3358    1.1392 C.ar    1  UNL1        0.0000
     35 C           1.0549   -0.2777    0.6793 C.ar    1  UNL1        0.0000
     36 H          -3.0003   -0.3389    2.5917 H       1  UNL1        0.0000
     37 H          -2.2389   -2.8627    3.1193 H       1  UNL1        0.0000
     38 H          -1.5949   -0.1788    3.6389 H       1  UNL1        0.0000
     39 H           1.8197   -4.7762    0.2572 H       1  UNL1        0.0000
     40 H          -0.7802   -1.9196    2.9474 H       1  UNL1        0.0000
     41 H           2.5493   -2.0295    2.2547 H       1  UNL1        0.0000
     42 H          -1.0696   -3.5305   -0.0003 H       1  UNL1        0.0000
     43 H          -0.6408    0.6563   -3.2014 H       1  UNL1        0.0000
     44 H           2.1189   -0.1532   -2.0464 H       1  UNL1        0.0000
     45 H           0.4846   -2.2785   -2.1425 H       1  UNL1        0.0000
     46 H           1.3537    1.0137    2.0479 H       1  UNL1        0.0000
     47 H          -0.0060   -2.2186   -3.9573 H       1  UNL1        0.0000
     48 H           2.4544   -3.5848   -1.0656 H       1  UNL1        0.0000
     49 H           0.6114   -2.2963    3.6151 H       1  UNL1        0.0000
     50 H          -1.2438   -1.1426   -0.7235 H       1  UNL1        0.0000
     51 H          -1.2438   -1.1426   -0.7235 H       1  UNL1        0.0000
     52 H          -1.0727    2.3941   -2.3867 H       1  UNL1        0.0000
     53 H           2.2799   -2.1514   -2.0333 H       1  UNL1        0.0000
     54 H          -1.0375    2.2196   -0.7695 H       1  UNL1        0.0000
     55 H           0.2390   -1.5988   -0.1922 H       1  UNL1        0.0000
     56 H           3.0620    1.9323   -0.1568 H       1  UNL1        0.0000
     57 H           1.8017   -1.1104   -3.0631 H       1  UNL1        0.0000
     58 H          -3.4492   -0.6800   -2.2910 H       1  UNL1        0.0000
     59 H           1.6755   -0.5659    2.3944 H       1  UNL1        0.0000
     60 H          -2.5011    1.9789    1.4699 H       1  UNL1        0.0000
     61 H           2.7831    1.6864   -2.2076 H       1  UNL1        0.0000
     62 H           2.8323    2.4482   -1.6905 H       1  UNL1        0.0000
     63 H          -0.1894    1.2242    2.6084 H       1  UNL1        0.0000
     64 H           2.2987   -2.8667    0.8505 H       1  UNL1        0.0000
     65 H          -2.1196   -3.0646    1.2927 H       1  UNL1        0.0000
     66 H          -1.7799    1.0349    2.3322 H       1  UNL1        0.0000
     67 H           2.5260    1.7014    1.4673 H       1  UNL1        0.0000
     68 EU          1.2664    2.8205   -1.6728 Eu      1  UNL1        0.0000
@<TRIPOS>BOND
     1     1     2    2
     2     2     3   am
     3     3     4    1
     4     3     5    1
     5     5     6    1
     6     6     7    1
     7     2     8    1
     8     8     9   ar
     9     9    10   ar
    10     8    11   ar
    11    11    12   ar
    12    12    13   ar
    13    10    13   ar
    14    13    14   ar
    15    14    15   ar
    16    15    16   ar
    17    16    17   ar
    18    12    17   ar
    19    17    18   ar
    20    18    19   ar
    21    19    20    1
    22    20    21   ar
    23    21    22   ar
    24    22    23    1
    25    23    24    1
    26    23    25    1
    27    23    26    1
    28    26    27    1
    29    27    28    1
    30    28    29    1
    31    28    30    1
    32    22    31   ar
    33    28    31    1
    34    31    32   ar
    35    32    33   ar
    36    20    33   ar
    37    19    34   ar
    38    34    35   ar
    39    16    35   ar
    40     4    36    1
    41     4    37    1
    42     4    38    1
    43     5    39    1
    44     5    40    1
    45     6    41    1
    46     6    42    1
    47     7    43    1
    48     7    44    1
    49     7    45    1
    50     9    46    1
    51    10    47    1
    52    14    48    1
    53    15    49    1
    54    24    50    1
    55    24    51    1
    56    24    52    1
    57    25    53    1
    58    25    54    1
    59    25    55    1
    60    26    56    1
    61    26    57    1
    62    27    58    1
    63    27    59    1
    64    29    60    1
    65    29    61    1
    66    29    62    1
    67    30    63    1
    68    30    64    1
    69    30    65    1
    70    34    66    1
    71    35    67    1
    72    68     1    1
    73    68    33    1
    74    68    18    1
    75    68    11    1
@<TRIPOS>MOLECULE
*****
 68 75 0 0 0
SMALL
GASTEIGER

@<TRIPOS>ATOM
      1 O          -2.0112    0.3698   -2.2855 O.2     1  UNL1        0.0000
      2 C          -2.2682    0.6023   -1.6704 C.2     1  UNL1        0.0000
      3 N          -2.4356   -1.0748    1.8775 N.am    1  UNL1        0.0000
      4 C          -2.6732   -1.2299    3.1844 C.3     1  UNL1        0.0000
      5 C          -0.0386   -3.2656    2.2345 C.3     1  UNL1        0.0000
      6 C           0.9156   -2.3927    1.8601 C.3     1  UNL1        0.0000
      7 C           0.5729   -1.8096   -1.8252 C.3     1  UNL1        0.0000
      8 C           0.4848    2.6876   -1.4490 C.ar    1  UNL1        0.0000
      9 C           1.7094    1.1695   -0.9315 C.ar    1  UNL1        0.0000
     10 C           0.1972   -0.9608   -3.6970 C.ar    1  UNL1        0.0000
     11 N           0.9711    2.9341   -1.9195 N.ar    1  UNL1        0.0000
     12 C           1.0470    1.2292   -2.8776 C.ar    1  UNL1        0.0000
     13 C           0.1094   -0.9405   -3.6584 C.ar    1  UNL1        0.0000
     14 C           0.7585   -3.6526   -0.9973 C.ar    1  UNL1        0.0000
     15 C           0.7510   -3.2853    0.1293 C.ar    1  UNL1        0.0000
     16 C           2.1011   -1.4176   -0.2688 C.ar    1  UNL1        0.0000
     17 C           3.0403   -0.4718   -0.5715 C.ar    1  UNL1        0.0000
     18 N           2.8179    0.2936    0.4718 N.ar    1  UNL1        0.0000
     19 C           0.3499   -0.3806    1.3156 C.ar    1  UNL1        0.0000
     20 C          -0.7241   -0.2050    1.8696 C.ar    1  UNL1        0.0000
     21 N          -3.0012   -1.4322    0.2086 N.ar    1  UNL1        0.0000
     22 C          -3.1744   -0.9226   -0.5120 C.ar    1  UNL1        0.0000
     23 C          -1.4870   -1.3625   -1.2812 C.3     1  UNL1        0.0000
     24 C          -0.2639    0.3017   -1.2147 C.3     1  UNL1        0.0000
     25 C           0.0127    0.0700   -1.3086 C.3     1  UNL1        0.0000
     26 C          -0.0512    0.2918   -1.1837 C.3     1  UNL1        0.0000
     27 C          -1.7152    0.5452    0.3069 C.3     1  UNL1        0.0000
     28 C          -0.3299    1.5466    0.8089 C.3     1  UNL1        0.0000
     29 C           0.8164    2.2888    0.5500 C.3     1  UNL1        0.0000
     30 C          -0.9876   -2.0040    0.9744 C.3     1  UNL1        0.0000
     31 C          -2.7541    1.8784   -0.2382 C.ar    1  UNL1        0.0000
     32 N          -2.6931    3.1551   -0.1001 N.ar    1  UNL1        0.0000
     33 N          -1.3863    3.0799    0.8652 N.ar    1  UNL1        0.0000
     34 C           0.2673   -0.3358    1.1392 C.ar    1  UNL1        0.0000
     35 C           1.0549   -0.2777    0.6793 C.ar    1  UNL1        0.0000
     36 H          -3.0003   -0.3389    2.5917 H       1  UNL1        0.0000
     37 H          -2.2389   -2.8627    3.1193 H       1  UNL1        0.0000
     38 H          -1.5949   -0.1788    3.6389 H       1  UNL1        0.0000
     39 H           1.8197   -4.7762    0.2572 H       1  UNL1        0.0000
     40 H          -0.7802   -1.9196    2.9474 H       1  UNL1        0.0000
     41 H           2.5493   -2.0295    2.2547 H       1  UNL1        0.0000
     42 H          -1.0696   -3.5305   -0.0003 H       1  UNL1        0.0000
     43 H          -0.6408    0.6563   -3.2014 H       1  UNL1        0.0000
     44 H           2.1189   -0.1532   -2.0464 H       1  UNL1        0.0000
     45 H           0.4846   -2.2785   -2.1425 H       1  UNL1        0.0000
     46 H           1.3537    1.0137    2.0479 H       1  UNL1        0.0000
     47 H          -0.0060   -2.2186   -3.9573 H       1  UNL1        0.0000
     48 H           2.4544   -3.5848   -1.0656 H       1  UNL1        0.0000
     49 H           0.6114   -2.2963    3.6151 H       1  UNL1        0.0000
     50 H          -1.2438   -1.1426   -0.7235 H       1  UNL1        0.0000
     51 H          -1.2438   -1.1426   -0.7235 H       1  UNL1        0.0000
     52 H          -1.0727    2.3941   -2.3867 H       1  UNL1        0.0000
     53 H           2.2799   -2.1514   -2.0333 H       1  UNL1        0.0000
     54 H          -1.0375    2.2196   -0.7695 H       1  UNL1        0.0000
     55 H           0.2390   -1.5988   -0.1922 H       1  UNL1        0.0000
     56 H           3.0620    1.9323   -0.1568 H       1  UNL1        0.0000
     57 H           1.8017   -1.1104   -3.0631 H       1  UNL1        0.0000
     58 H          -3.4492   -0.6800   -2.2910 H       1  UNL1        0.0000
     59 H           1.6755   -0.5659    2.3944 H       1  UNL1        0.0000
     60 H          -2.5011    1.9789    1.4699 H       1  UNL1        0.0000
     61 H           2.7831    1.6864   -2.2076 H       1  UNL1        0.0000
     62 H           2.8323    2.4482   -1.6905 H       1  UNL1        0.0000
     63 H          -0.1894    1.2242    2.6084 H       1  UNL1        0.0000
     64 H           2.2987   -2.8667    0.8505 H       1  UNL1        0.0000
     65 H          -2.1196   -3.0646    1.2927 H       1  UNL1        0.0000
     66 H          -1.7799    1.0349    2.3322 H       1  UNL1        0.0000
     67 H           2.5260    1.7014    1.4673 H       1  UNL1        0.0000
     68 EU          1.2664    2.8205   -1.6728 Eu      1  UNL1        0.0000
@<TRIPOS>BOND
     1     1     2    2
     2     2     3   am
     3     3     4    1
     4     3     5    1
     5     5     6    1
     6     6     7    1
     7     2     8    1
     8     8     9   ar
     9     9    10   ar
    10     8    11   ar
    11    11    12   ar
    12    12    13   ar
    13    10    13   ar
    14    13    14   ar
    15    14    15   ar
    16    15    16   ar
    17    16    17   ar
    18    12    17   ar
    19    17    18   ar
    20    18    19   ar
    21    19    20    1
    22    20    21   ar
    23    21    22   ar
    24    22    23    1
    25    23    24    1
    26    23    25    1
    27    23    26    1
    28    26    27    1
    29    27    28    1
    30    28    29    1
    31    28    30    1
    32    22    31   ar
    33    28    31    1
    34    31    32   ar
    35    32    33   ar
    36    20    33   ar
    37    19    34   ar
    38    34    35   ar
    39    16    35   ar
    40     4    36    1
    41     4    37    1
    42     4    38    1
    43     5    39    1
    44     5    40    1
    45     6    41    1
    46     6    42    1
    47     7    43    1
    48     7    44    1
    49     7    45    1
    50     9    46    1
    51    10    47    1
    52    14    48    1
    53    15    49    1
    54    24    50    1
    55    24    51    1
    56    24    52    1
    57    25    53    1
    58    25    54    1
    59    25    55    1
    60    26    56    1
    61    26    57    1
    62    27    58    1
    63    27    59    1
    64    29    60    1
    65    29    61    1
    66    29    62    1
    67    30    63    1
    68    30    64    1
    69    30    65    1
    70    34    66    1
    71    35    67    1
    72    68     1    1
    73    68    33    1
    74    68    18    1
    75    68    11    1
@<TRIPOS>MOLECULE
*****
 68 75 0 0 0
SMALL
GASTEIGER

@<TRIPOS>ATOM
      1 O          -2.0112    0.3698   -2.2855 O.2     1  UNL1        0.0000
      2 C          -2.2682    0.6023   -1.6704 C.2     1  UNL1        0.0000
      3 N          -2.4356   -1.0748    1.8775 N.am    1  UNL1        0.0000
      4 C          -2.6732   -1.2299    3.1844 C.3     1  UNL1        0.0000
      5 C          -0.0386   -3.2656    2.2345 C.3     1  UNL1        0.0000
      6 C           0.9156   -2.3927    1.8601 C.3     1  UNL1        0.0000
      7 C           0.5729   -1.8096   -1.8252 C.3     1  UNL1        0.0000
      8 C           0.4848    2.6876   -1.4490 C.ar    1  UNL1        0.0000
      9 C           1.7094    1.1695   -0.9315 C.ar    1  UNL1        0.0000
     10 C           0.1972   -0.9608   -3.6970 C.ar    1  UNL1        0.0000
     11 N           0.9711    2.9341   -1.9195 N.ar    1  UNL1        0.0000
     12 C           1.0470    1.2292   -2.8776 C.ar    1  UNL1        0.0000
     13 C           0.1094   -0.9405   -3.6584 C.ar    1  UNL1        0.0000
     14 C           0.7585   -3.6526   -0.9973 C.ar    1  UNL1        0.0000
     15 C           0.7510   -3.2853    0.1293 C.ar    1  UNL1        0.0000
     16 C           2.1011   -1.4176   -0.2688 C.ar    1  UNL1        0.0000
     17 C           3.0403   -0.4718   -0.5715 C.ar    1  UNL1        0.0000
     18 N           2.8179    0.2936    0.4718 N.ar    1  UNL1        0.0000
     19 C           0.3499   -0.3806    1.3156 C.ar    1  UNL1        0.0000
     20 C          -0.7241   -0.2050    1.8696 C.ar    1  UNL1        0.0000
     21 N          -3.0012   -1.4322    0.2086 N.ar    1  UNL1        0.0000
     22 C          -3.1744   -0.9226   -0.5120 C.ar    1  UNL1        0.0000
     23 C          -1.4870   -1.3625   -1.2812 C.3     1  UNL1        0.0000
     24 C          -0.2639    0.3017   -1.2147 C.3     1  UNL1        0.0000
     25 C           0.0127    0.0700   -1.3086 C.3     1  UNL1        0.0000
     26 C          -0.0512    0.2918   -1.1837 C.3     1  UNL1        0.0000
     27 C          -1.7152    0.5452    0.3069 C.3     1  UNL1        0.0000
     28 C          -0.3299    1.5466    0.8089 C.3     1  UNL1        0.0000
     29 C           0.8164    2.2888    0.5500 C.3     1  UNL1        0.0000
     30 C          -0.9876   -2.0040    0.9744 C.3     1  UNL1        0.0000
     31 C          -2.7541    1.8784   -0.2382 C.ar    1  UNL1        0.0000
     32 N          -2.6931    3.1551   -0.1001 N.ar    1  UNL1        0.0000
     33 N          -1.3863    3.0799    0.8652 N.ar    1  UNL1        0.0000
     34 C           0.2673   -0.3358    1.1392 C.ar    1  UNL1        0.0000
     35 C           1.0549   -0.2777    0.6793 C.ar    1  UNL1        0.0000
     36 H          -3.0003   -0.3389    2.5917 H       1  UNL1        0.0000
     37 H          -2.2389   -2.8627    3.1193 H       1  UNL1        0.0000
     38 H          -1.5949   -0.1788    3.6389 H       1  UNL1        0.0000
     39 H           1.8197   -4.7762    0.2572 H       1  UNL1        0.0000
     40 H          -0.7802   -1.9196    2.9474 H       1  UNL1        0.0000
     41 H           2.5493   -2.0295    2.2547 H       1  UNL1        0.0000
     42 H          -1.0696   -3.5305   -0.0003 H       1  UNL1        0.0000
     43 H          -0.6408    0.6563   -3.2014 H       1  UNL1        0.0000
     44 H           2.1189   -0.1532   -2.0464 H       1  UNL1        0.0000
     45 H           0.4846   -2.2785   -2.1425 H       1  UNL1        0.0000
     46 H           1.3537    1.0137    2.0479 H       1  UNL1        0.0000
     47 H          -0.0060   -2.2186   -3.9573 H       1  UNL1        0.0000
     48 H           2.4544   -3.5848   -1.0656 H       1  UNL1        0.0000
     49 H           0.6114   -2.2963    3.6151 H       1  UNL1        0.0000
     50 H          -1.2438   -1.1426   -0.7235 H       1  UNL1        0.0000
     51 H          -1.2438   -1.1426   -0.7235 H       1  UNL1        0.0000
     52 H          -1.0727    2.3941   -2.3867 H       1  UNL1        0.0000
     53 H           2.2799   -2.1514   -2.0333 H       1  UNL1        0.0000
     54 H          -1.0375    2.2196   -0.7695 H       1  UNL1        0.0000
     55 H           0.2390   -1.5988   -0.1922 H       1  UNL1        0.0000
     56 H           3.0620    1.9323   -0.1568 H       1  UNL1        0.0000
     57 H           1.8017   -1.1104   -3.0631 H       1  UNL1        0.0000
     58 H          -3.4492   -0.6800   -2.2910 H       1  UNL1        0.0000
     59 H           1.6755   -0.5659    2.3944 H       1  UNL1        0.0000
     60 H          -2.5011    1.9789    1.4699 H       1  UNL1        0.0000
     61 H           2.7831    1.6864   -2.2076 H       1  UNL1        0.0000
     62 H           2.8323    2.4482   -1.6905 H       1  UNL1        0.0000
     63 H          -0.1894    1.2242    2.6084 H       1  UNL1        0.0000
     64 H           2.2987   -2.8667    0.8505 H       1  UNL1        0.0000
     65 H          -2.1196   -3.0646    1.2927 H       1  UNL1        0.0000
     66 H          -1.7799    1.0349    2.3322 H       1  UNL1        0.0000
     67 H           2.5260    1.7014    1.4673 H       1  UNL1        0.0000
     68 EU          1.2664    2.8205   -1.6728 Eu      1  UNL1        0.0000
@<TRIPOS>BOND
     1     1     2    2
     2     2     3   am
     3     3     4    1
     4     3     5    1
     5     5     6    1
     6     6     7    1
     7     2     8    1
     8     8     9   ar
     9     9    10   ar
    10     8    11   ar
    11    11    12   ar
    12    12    13   ar
    13    10    13   ar
    14    13    14   ar
    15    14    15   ar
    16    15    16   ar
    17    16    17   ar
    18    12    17   ar
    19    17    18   ar
    20    18    19   ar
    21    19    20    1
    22    20    21   ar
    23    21    22   ar
    24    22    23    1
    25    23    24    1
    26    23    25    1
    27    23    26    1
    28    26    27    1
    29    27    28    1
    30    28    29    1
    31    28    30    1
    32    22    31   ar
    33    28    31    1
    34    31    32   ar
    35    32    33   ar
    36    20    33   ar
    37    19    34   ar
    38    34    35   ar
    39    16    35   ar
    40     4    36    1
    41     4    37    1
    42     4    38    1
    43     5    39    1
    44     5    40    1
    45     6    41    1
    46     6    42    1
    47     7    43    1
    48     7    44    1
    49     7    45    1
    50     9    46    1
    51    10    47    1
    52    14    48    1
    53    15    49    1
    54    24    50    1
    55    24    51    1
    56    24    52    1
    57    25    53    1
    58    25    54    1
    59    25    55    1
    60    26    56    1
    61    26    57    1
    62    27    58    1
    63    27    59    1
    64    29    60    1
    65    29    61    1
    66    29    62    1
    67    30    63    1
    68    30    64    1
    69    30    65    1
    70    34    66    1
    71    35    67    1
    72    68     1    1
    73    68    33    1
    74    68    18    1
    75    68    11    1
@<TRIPOS>MOLECULE
*****
 68 75 0 0 0
SMALL
GASTEIGER

@<TRIPOS>ATOM
      1 O          -2.0112    0.3698   -2.2855 O.2     1  UNL1        0.0000
      2 C          -2.2682    0.6023   -1.6704 C.2     1  UNL1        0.0000
      3 N          -2.4356   -1.0748    1.8775 N.am    1  UNL1        0.0000
      4 C          -2.6732   -1.2299    3.1844 C.3     1  UNL1        0.0000
      5 C          -0.0386   -3.2656    2.2345 C.3     1  UNL1        0.0000
      6 C           0.9156   -2.3927    1.8601 C.3     1  UNL1        0.0000
      7 C           0.5729   -1.8096   -1.8252 C.3     1  UNL1        0.0000
      8 C           0.4848    2.6876   -1.4490 C.ar    1  UNL1        0.0000
      9 C           1.7094    1.1695   -0.9315 C.ar    1  UNL1        0.0000
     10 C           0.1972   -0.9608   -3.6970 C.ar    1  UNL1        0.0000
     11 N           0.9711    2.9341   -1.9195 N.ar    1  UNL1        0.0000
     12 C           1.0470    1.2292   -2.8776 C.ar    1  UNL1        0.0000
     13 C           0.1094   -0.9405   -3.6584 C.ar    1  UNL1        0.0000
     14 C           0.7585   -3.6526   -0.9973 C.ar    1  UNL1        0.0000
     15 C           0.7510   -3.2853    0.1293 C.ar    1  UNL1        0.0000
     16 C           2.1011   -1.4176   -0.2688 C.ar    1  UNL1        0.0000
     17 C           3.0403   -0.4718   -0.5715 C.ar    1  UNL1        0.0000
     18 N           2.8179    0.2936    0.4718 N.ar    1  UNL1        0.0000
     19 C           0.3499   -0.3806    1.3156 C.ar    1  UNL1        0.0000
     20 C          -0.7241   -0.2050    1.8696 C.ar    1  UNL1        0.0000
     21 N          -3.0012   -1.4322    0.2086 N.ar    1  UNL1        0.0000
     22 C          -3.1744   -0.9226   -0.5120 C.ar    1  UNL1        0.0000
     23 C          -1.4870   -1.3625   -1.2812 C.3     1  UNL1        0.0000
     24 C          -0.2639    0.3017   -1.2147 C.3     1  UNL1        0.0000
     25 C           0.0127    0.0700   -1.3086 C.3     1  UNL1        0.0000
     26 C          -0.0512    0.2918   -1.1837 C.3     1  UNL1        0.0000
     27 C          -1.7152    0.5452    0.3069 C.3     1  UNL1        0.0000
     28 C          -0.3299    1.5466    0.8089 C.3     1  UNL1        0.0000
     29 C           0.8164    2.2888    0.5500 C.3     1  UNL1        0.0000
     30 C          -0.9876   -2.0040    0.9744 C.3     1  UNL1        0.0000
     31 C          -2.7541    1.8784   -0.2382 C.ar    1  UNL1        0.0000
     32 N          -2.6931    3.1551   -0.1001 N.ar    1  UNL1        0.0000
     33 N          -1.3863    3.0799    0.8652 N.ar    1  UNL1        0.0000
     34 C           0.2673   -0.3358    1.1392 C.ar    1  UNL1        0.0000
     35 C           1.0549   -0.2777    0.6793 C.ar    1  UNL1        0.0000
     36 H          -3.0003   -0.3389    2.5917 H       1  UNL1        0.0000
     37 H          -2.2389   -2.8627    3.1193 H       1  UNL1        0.0000
     38 H          -1.5949   -0.1788    3.6389 H       1  UNL1        0.0000
     39 H           1.8197   -4.7762    0.2572 H       1  UNL1        0.0000
     40 H          -0.7802   -1.9196    2.9474 H       1  UNL1        0.0000
     41 H           2.5493   -2.0295    2.2547 H       1  UNL1        0.0000
     42 H          -1.0696   -3.5305   -0.0003 H       1  UNL1        0.0000
     43 H          -0.6408    0.6563   -3.2014 H       1  UNL1        0.0000
     44 H           2.1189   -0.1532   -2.0464 H       1  UNL1        0.0000
     45 H           0.4846   -2.2785   -2.1425 H       1  UNL1        0.0000
     46 H           1.3537    1.0137    2.0479 H       1  UNL1        0.0000
     47 H          -0.0060   -2.2186   -3.9573 H       1  UNL1        0.0000
     48 H           2.4544   -3.5848   -1.0656 H       1  UNL1        0.0000
     49 H           0.6114   -2.2963    3.6151 H       1  UNL1        0.0000
     50 H          -1.2438   -1.1426   -0.7235 H       1  UNL1        0.0000
     51 H          -1.2438   -1.1426   -0.7235 H       1  UNL1        0.0000
     52 H          -1.0727    2.3941   -2.3867 H       1  UNL1        0.0000
     53 H           2.2799   -2.1514   -2.0333 H       1  UNL1        0.0000
     54 H          -1.0375    2.2196   -0.7695 H       1  UNL1        0.0000
     55 H           0.2390   -1.5988   -0.1922 H       1  UNL1        0.0000
     56 H           3.0620    1.9323   -0.1568 H       1  UNL1        0.0000
     57 H           1.8017   -1.1104   -3.0631 H       1  UNL1        0.0000
     58 H          -3.4492   -0.6800   -2.2910 H       1  UNL1        0.0000
     59 H           1.6755   -0.5659    2.3944 H       1  UNL1        0.0000
     60 H          -2.5011    1.9789    1.4699 H       1  UNL1        0.0000
     61 H           2.7831    1.6864   -2.2076 H       1  UNL1        0.0000
     62 H           2.8323    2.4482   -1.6905 H       1  UNL1        0.0000
     63 H          -0.1894    1.2242    2.6084 H       1  UNL1        0.0000
     64 H           2.2987   -2.8667    0.8505 H       1  UNL1        0.0000
     65 H          -2.1196   -3.0646    1.2927 H       1  UNL1        0.0000
     66 H          -1.7799    1.0349    2.3322 H       1  UNL1        0.0000
     67 H           2.5260    1.7014    1.4673 H       1  UNL1        0.0000
     68 EU          1.2664    2.8205   -1.6728 Eu      1  UNL1        0.0000
@<TRIPOS>BOND
     1     1     2    2
     2     2     3   am
     3     3     4    1
     4     3     5    1
     5     5     6    1
     6     6     7    1
     7     2     8    1
     8     8     9   ar
     9     9    10   ar
    10     8    11   ar
    11    11    12   ar
    12    12    13   ar
    13    10    13   ar
    14    13    14   ar
    15    14    15   ar
    16    15    16   ar
    17    16    17   ar
    18    12    17   ar
    19    17    18   ar
    20    18    19   ar
    21    19    20    1
    22    20    21   ar
    23    21    22   ar
    24    22    23    1
    25    23    24    1
    26    23    25    1
    27    23    26    1
    28    26    27    1
    29    27    28    1
    30    28    29    1
    31    28    30    1
    32    22    31   ar
    33    28    31    1
    34    31    32   ar
    35    32    33   ar
    36    20    33   ar
    37    19    34   ar
    38    34    35   ar
    39    16    35   ar
    40     4    36    1
    41     4    37    1
    42     4    38    1
    43     5    39    1
    44     5    40    1
    45     6    41    1
    46     6    42    1
    47     7    43    1
    48     7    44    1
    49     7    45    1
    50     9    46    1
    51    10    47    1
    52    14    48    1
    53    15    49    1
    54    24    50    1
    55    24    51    1
    56    24    52    1
    57    25    53    1
    58    25    54    1
    59    25    55    1
    60    26    56    1
    61    26    57    1
    62    27    58    1
    63    27    59    1
    64    29    60    1
    65    29    61    1
    66    29    62    1
    67    30    63    1
    68    30    64    1
    69    30    65    1
    70    34    66    1
    71    35    67    1
    72    68     1    1
    73    68    33    1
    74    68    18    1
    75    68    11    1
@<TRIPOS>MOLECULE
*****
 68 75 0 0 0
SMALL
GASTEIGER

@<TRIPOS>ATOM
      1 O          -2.0112    0.3698   -2.2855 O.2     1  UNL1        0.0000
      2 C          -2.2682    0.6023   -1.6704 C.2     1  UNL1        0.0000
      3 N          -2.4356   -1.0748    1.8775 N.am    1  UNL1        0.0000
      4 C          -2.6732   -1.2299    3.1844 C.3     1  UNL1        0.0000
      5 C          -0.0386   -3.2656    2.2345 C.3     1  UNL1        0.0000
      6 C           0.9156   -2.3927    1.8601 C.3     1  UNL1        0.0000
      7 C           0.5729   -1.8096   -1.8252 C.3     1  UNL1        0.0000
      8 C           0.4848    2.6876   -1.4490 C.ar    1  UNL1        0.0000
      9 C           1.7094    1.1695   -0.9315 C.ar    1  UNL1        0.0000
     10 C           0.1972   -0.9608   -3.6970 C.ar    1  UNL1        0.0000
     11 N           0.9711    2.9341   -1.9195 N.ar    1  UNL1        0.0000
     12 C           1.0470    1.2292   -2.8776 C.ar    1  UNL1        0.0000
     13 C           0.1094   -0.9405   -3.6584 C.ar    1  UNL1        0.0000
     14 C           0.7585   -3.6526   -0.9973 C.ar    1  UNL1        0.0000
     15 C           0.7510   -3.2853    0.1293 C.ar    1  UNL1        0.0000
     16 C           2.1011   -1.4176   -0.2688 C.ar    1  UNL1        0.0000
     17 C           3.0403   -0.4718   -0.5715 C.ar    1  UNL1        0.0000
     18 N           2.8179    0.2936    0.4718 N.ar    1  UNL1        0.0000
     19 C           0.3499   -0.3806    1.3156 C.ar    1  UNL1        0.0000
     20 C          -0.7241   -0.2050    1.8696 C.ar    1  UNL1        0.0000
     21 N          -3.0012   -1.4322    0.2086 N.ar    1  UNL1        0.0000
     22 C          -3.1744   -0.9226   -0.5120 C.ar    1  UNL1        0.0000
     23 C          -1.4870   -1.3625   -1.2812 C.3     1  UNL1        0.0000
     24 C          -0.2639    0.3017   -1.2147 C.3     1  UNL1        0.0000
     25 C           0.0127    0.0700   -1.3086 C.3     1  UNL1        0.0000
     26 C          -0.0512    0.2918   -1.1837 C.3     1  UNL1        0.0000
     27 C          -1.7152    0.5452    0.3069 C.3     1  UNL1        0.0000
     28 C          -0.3299    1.5466    0.8089 C.3     1  UNL1        0.0000
     29 C           0.8164    2.2888    0.5500 C.3     1  UNL1        0.0000
     30 C          -0.9876   -2.0040    0.9744 C.3     1  UNL1        0.0000
     31 C          -2.7541    1.8784   -0.2382 C.ar    1  UNL1        0.0000
     32 N          -2.6931    3.1551   -0.1001 N.ar    1  UNL1        0.0000
     33 N          -1.3863    3.0799    0.8652 N.ar    1  UNL1        0.0000
     34 C           0.2673   -0.3358    1.1392 C.ar    1  UNL1        0.0000
     35 C           1.0549   -0.2777    0.6793 C.ar    1  UNL1        0.0000
     36 H          -3.0003   -0.3389    2.5917 H       1  UNL1        0.0000
     37 H          -2.2389   -2.8627    3.1193 H       1  UNL1        0.0000
     38 H          -1.5949   -0.1788    3.6389 H       1  UNL1        0.0000
     39 H           1.8197   -4.7762    0.2572 H       1  UNL1        0.0000
     40 H          -0.7802   -1.9196    2.9474 H       1  UNL1        0.0000
     41 H           2.5493   -2.0295    2.2547 H       1  UNL1        0.0000
     42 H          -1.0696   -3.5305   -0.0003 H       1  UNL1        0.0000
     43 H          -0.6408    0.6563   -3.2014 H       1  UNL1        0.0000
     44 H           2.1189   -0.1532   -2.0464 H       1  UNL1        0.0000
     45 H           0.4846   -2.2785   -2.1425 H       1  UNL1        0.0000
     46 H           1.3537    1.0137    2.0479 H       1  UNL1        0.0000
     47 H          -0.0060   -2.2186   -3.9573 H       1  UNL1        0.0000
     48 H           2.4544   -3.5848   -1.0656 H       1  UNL1        0.0000
     49 H           0.6114   -2.2963    3.6151 H       1  UNL1        0.0000
     50 H          -1.2438   -1.1426   -0.7235 H       1  UNL1        0.0000
     51 H          -1.2438   -1.1426   -0.7235 H       1  UNL1        0.0000
     52 H          -1.0727    2.3941   -2.3867 H       1  UNL1        0.0000
     53 H           2.2799   -2.1514   -2.0333 H       1  UNL1        0.0000
     54 H          -1.0375    2.2196   -0.7695 H       1  UNL1        0.0000
     55 H           0.2390   -1.5988   -0.1922 H       1  UNL1        0.0000
     56 H           3.0620    1.9323   -0.1568 H       1  UNL1        0.0000
     57 H           1.8017   -1.1104   -3.0631 H       1  UNL1        0.0000
     58 H          -3.4492   -0.6800   -2.2910 H       1  UNL1        0.0000
     59 H           1.6755   -0.5659    2.3944 H       1  UNL1        0.0000
     60 H          -2.5011    1.9789    1.4699 H       1  UNL1        0.0000
     61 H           2.7831    1.6864   -2.2076 H       1  UNL1        0.0000
     62 H           2.8323    2.4482   -1.6905 H       1  UNL1        0.0000
     63 H          -0.1894    1.2242    2.6084 H       1  UNL1        0.0000
     64 H           2.2987   -2.8667    0.8505 H       1  UNL1        0.0000
     65 H          -2.1196   -3.0646    1.2927 H       1  UNL1        0.0000
     66 H          -1.7799    1.0349    2.3322 H       1  UNL1        0.0000
     67 H           2.5260    1.7014    1.4673 H       1  UNL1        0.0000
     68 EU          1.2664    2.8205   -1.6728 Eu      1  UNL1        0.0000
@<TRIPOS>BOND
     1     1     2    2
     2     2     3   am
     3     3     4    1
     4     3     5    1
     5     5     6    1
     6     6     7    1
     7     2     8    1
     8     8     9   ar
     9     9    10   ar
    10     8    11   ar
    11    11    12   ar
    12    12    13   ar
    13    10    13   ar
    14    13    14   ar
    15    14    15   ar
    16    15    16   ar
    17    16    17   ar
    18    12    17   ar
    19    17    18   ar
    20    18    19   ar
    21    19    20    1
    22    20    21   ar
    23    21    22   ar
    24    22    23    1
    25    23    24    1
    26    23    25    1
    27    23    26    1
    28    26    27    1
    29    27    28    1
    30    28    29    1
    31    28    30    1
    32    22    31   ar
    33    28    31    1
    34    31    32   ar
    35    32    33   ar
    36    20    33   ar
    37    19    34   ar
    38    34    35   ar
    39    16    35   ar
    40     4    36    1
    41     4    37    1
    42     4    38    1
    43     5    39    1
    44     5    40    1
    45     6    41    1
    46     6    42    1
    47     7    43    1
    48     7    44    1
    49     7    45    1
    50     9    46    1
    51    10    47    1
    52    14    48    1
    53    15    49    1
    54    24    50    1
    55    24    51    1
    56    24    52    1
    57    25    53    1
    58    25    54    1
    59    25    55    1
    60    26    56    1
    61    26    57    1
    62    27    58    1
    63    27    59    1
    64    29    60    1
    65    29    61    1
    66    29    62    1
    67    30    63    1
    68    30    64    1
    69    30    65    1
    70    34    66    1
    71    35    67    1
    72    68     1    1
    73    68    33    1
    74    68    18    1
    75    68    11    1
@<TRIPOS>MOLECULE
*****
 68 75 0 0 0
SMALL
GASTEIGER

@<TRIPOS>ATOM
      1 O          -2.0112    0.3698   -2.2855 O.2     1  UNL1        0.0000
      2 C          -2.2682    0.6023   -1.6704 C.2     1  UNL1        0.0000
      3 N          -2.4356   -1.0748    1.8775 N.am    1  UNL1        0.0000
      4 C          -2.6732   -1.2299    3.1844 C.3     1  UNL1        0.0000
      5 C          -0.0386   -3.2656    2.2345 C.3     1  UNL1        0.0000
      6 C           0.9156   -2.3927    1.8601 C.3     1  UNL1        0.0000
      7 C           0.5729   -1.8096   -1.8252 C.3     1  UNL1        0.0000
      8 C           0.4848    2.6876   -1.4490 C.ar    1  UNL1        0.0000
      9 C           1.7094    1.1695   -0.9315 C.ar    1  UNL1        0.0000
     10 C           0.1972   -0.9608   -3.6970 C.ar    1  UNL1        0.0000
     11 N           0.9711    2.9341   -1.9195 N.ar    1  UNL1        0.0000
     12 C           1.0470    1.2292   -2.8776 C.ar    1  UNL1        0.0000
     13 C           0.1094   -0.9405   -3.6584 C.ar    1  UNL1        0.0000
     14 C           0.7585   -3.6526   -0.9973 C.ar    1  UNL1        0.0000
     15 C           0.7510   -3.2853    0.1293 C.ar    1  UNL1        0.0000
     16 C           2.1011   -1.4176   -0.2688 C.ar    1  UNL1        0.0000
     17 C           3.0403   -0.4718   -0.5715 C.ar    1  UNL1        0.0000
     18 N           2.8179    0.2936    0.4718 N.ar    1  UNL1        0.0000
     19 C           0.3499   -0.3806    1.3156 C.ar    1  UNL1        0.0000
     20 C          -0.7241   -0.2050    1.8696 C.ar    1  UNL1        0.0000
     21 N          -3.0012   -1.4322    0.2086 N.ar    1  UNL1        0.0000
     22 C          -3.1744   -0.9226   -0.5120 C.ar    1  UNL1        0.0000
     23 C          -1.4870   -1.3625   -1.2812 C.3     1  UNL1        0.0000
     24 C          -0.2639    0.3017   -1.2147 C.3     1  UNL1        0.0000
     25 C           0.0127    0.0700   -1.3086 C.3     1  UNL1        0.0000
     26 C          -0.0512    0.2918   -1.1837 C.3     1  UNL1        0.0000
     27 C          -1.7152    0.5452    0.3069 C.3     1  UNL1        0.0000
     28 C          -0.3299    1.5466    0.8089 C.3     1  UNL1        0.0000
     29 C           0.8164    2.2888    0.5500 C.3     1  UNL1        0.0000
     30 C          -0.9876   -2.0040    0.9744 C.3     1  UNL1        0.0000
     31 C          -2.7541    1.8784   -0.2382 C.ar    1  UNL1        0.0000
     32 N          -2.6931    3.1551   -0.1001 N.ar    1  UNL1        0.0000
     33 N          -1.3863    3.0799    0.8652 N.ar    1  UNL1        0.0000
     34 C           0.2673   -0.3358    1.1392 C.ar    1  UNL1        0.0000
     35 C           1.0549   -0.2777    0.6793 C.ar    1  UNL1        0.0000
     36 H          -3.0003   -0.3389    2.5917 H       1  UNL1        0.0000
     37 H          -2.2389   -2.8627    3.1193 H       1  UNL1        0.0000
     38 H          -1.5949   -0.1788    3.6389 H       1  UNL1        0.0000
     39 H           1.8197   -4.7762    0.2572 H       1  UNL1        0.0000
     40 H          -0.7802   -1.9196    2.9474 H       1  UNL1        0.0000
     41 H           2.5493   -2.0295    2.2547 H       1  UNL1        0.0000
     42 H          -1.0696   -3.5305   -0.0003 H       1  UNL1        0.0000
     43 H          -0.6408    0.6563   -3.2014 H       1  UNL1        0.0000
     44 H           2.1189   -0.1532   -2.0464 H       1  UNL1        0.0000
     45 H           0.4846   -2.2785   -2.1425 H       1  UNL1        0.0000
     46 H           1.3537    1.0137    2.0479 H       1  UNL1        0.0000
     47 H          -0.0060   -2.2186   -3.9573 H       1  UNL1        0.0000
     48 H           2.4544   -3.5848   -1.0656 H       1  UNL1        0.0000
     49 H           0.6114   -2.2963    3.6151 H       1  UNL1        0.0000
     50 H          -1.2438   -1.1426   -0.7235 H       1  UNL1        0.0000
     51 H          -1.2438   -1.1426   -0.7235 H       1  UNL1        0.0000
     52 H          -1.0727    2.3941   -2.3867 H       1  UNL1        0.0000
     53 H           2.2799   -2.1514   -2.0333 H       1  UNL1        0.0000
     54 H          -1.0375    2.2196   -0.7695 H       1  UNL1        0.0000
     55 H           0.2390   -1.5988   -0.1922 H       1  UNL1        0.0000
     56 H           3.0620    1.9323   -0.1568 H       1  UNL1        0.0000
     57 H           1.8017   -1.1104   -3.0631 H       1  UNL1        0.0000
     58 H          -3.4492   -0.6800   -2.2910 H       1  UNL1        0.0000
     59 H           1.6755   -0.5659    2.3944 H       1  UNL1        0.0000
     60 H          -2.5011    1.9789    1.4699 H       1  UNL1        0.0000
     61 H           2.7831    1.6864   -2.2076 H       1  UNL1        0.0000
     62 H           2.8323    2.4482   -1.6905 H       1  UNL1        0.0000
     63 H          -0.1894    1.2242    2.6084 H       1  UNL1        0.0000
     64 H           2.2987   -2.8667    0.8505 H       1  UNL1        0.0000
     65 H          -2.1196   -3.0646    1.2927 H       1  UNL1        0.0000
     66 H          -1.7799    1.0349    2.3322 H       1  UNL1        0.0000
     67 H           2.5260    1.7014    1.4673 H       1  UNL1        0.0000
     68 EU          1.2664    2.8205   -1.6728 Eu      1  UNL1        0.0000
@<TRIPOS>BOND
     1     1     2    2
     2     2     3   am
     3     3     4    1
     4     3     5    1
     5     5     6    1
     6     6     7    1
     7     2     8    1
     8     8     9   ar
     9     9    10   ar
    10     8    11   ar
    11    11    12   ar
    12    12    13   ar
    13    10    13   ar
    14    13    14   ar
    15    14    15   ar
    16    15    16   ar
    17    16    17   ar
    18    12    17   ar
    19    17    18   ar
    20    18    19   ar
    21    19    20    1
    22    20    21   ar
    23    21    22   ar
    24    22    23    1
    25    23    24    1
    26    23    25    1
    27    23    26    1
    28    26    27    1
    29    27    28    1
    30    28    29    1
    31    28    30    1
    32    22    31   ar
    33    28    31    1
    34    31    32   ar
    35    32    33   ar
    36    20    33   ar
    37    19    34   ar
    38    34    35   ar
    39    16    35   ar
    40     4    36    1
    41     4    37    1
    42     4    38    1
    43     5    39    1
    44     5    40    1
    45     6    41    1
    46     6    42    1
    47     7    43    1
    48     7    44    1
    49     7    45    1
    50     9    46    1
    51    10    47    1
    52    14    48    1
    53    15    49    1
    54    24    50    1
    55    24    51    1
    56    24    52    1
    57    25    53    1
    58    25    54    1
    59    25    55    1
    60    26    56    1
    61    26    57    1
    62    27    58    1
    63    27    59    1
    64    29    60    1
    65    29    61    1
    66    29    62    1
    67    30    63    1
    68    30    64    1
    69    30    65    1
    70    34    66    1
    71    35    67    1
    72    68     1    1
    73    68    33    1
    74    68    18    1
    75    68    11    1
@<TRIPOS>MOLECULE
*****
 68 75 0 0 0
SMALL
GASTEIGER

@<TRIPOS>ATOM
      1 O          -2.0112    0.3698   -2.2855 O.2     1  UNL1        0.0000
      2 C          -2.2682    0.6023   -1.6704 C.2     1  UNL1        0.0000
      3 N          -2.4356   -1.0748    1.8775 N.am    1  UNL1        0.0000
      4 C          -2.6732   -1.2299    3.1844 C.3     1  UNL1        0.0000
      5 C          -0.0386   -3.2656    2.2345 C.3     1  UNL1        0.0000
      6 C           0.9156   -2.3927    1.8601 C.3     1  UNL1        0.0000
      7 C           0.5729   -1.8096   -1.8252 C.3     1  UNL1        0.0000
      8 C           0.4848    2.6876   -1.4490 C.ar    1  UNL1        0.0000
      9 C           1.7094    1.1695   -0.9315 C.ar    1  UNL1        0.0000
     10 C           0.1972   -0.9608   -3.6970 C.ar    1  UNL1        0.0000
     11 N           0.9711    2.9341   -1.9195 N.ar    1  UNL1        0.0000
     12 C           1.0470    1.2292   -2.8776 C.ar    1  UNL1        0.0000
     13 C           0.1094   -0.9405   -3.6584 C.ar    1  UNL1        0.0000
     14 C           0.7585   -3.6526   -0.9973 C.ar    1  UNL1        0.0000
     15 C           0.7510   -3.2853    0.1293 C.ar    1  UNL1        0.0000
     16 C           2.1011   -1.4176   -0.2688 C.ar    1  UNL1        0.0000
     17 C           3.0403   -0.4718   -0.5715 C.ar    1  UNL1        0.0000
     18 N           2.8179    0.2936    0.4718 N.ar    1  UNL1        0.0000
     19 C           0.3499   -0.3806    1.3156 C.ar    1  UNL1        0.0000
     20 C          -0.7241   -0.2050    1.8696 C.ar    1  UNL1        0.0000
     21 N          -3.0012   -1.4322    0.2086 N.ar    1  UNL1        0.0000
     22 C          -3.1744   -0.9226   -0.5120 C.ar    1  UNL1        0.0000
     23 C          -1.4870   -1.3625   -1.2812 C.3     1  UNL1        0.0000
     24 C          -0.2639    0.3017   -1.2147 C.3     1  UNL1        0.0000
     25 C           0.0127    0.0700   -1.3086 C.3     1  UNL1        0.0000
     26 C          -0.0512    0.2918   -1.1837 C.3     1  UNL1        0.0000
     27 C          -1.7152    0.5452    0.3069 C.3     1  UNL1        0.0000
     28 C          -0.3299    1.5466    0.8089 C.3     1  UNL1        0.0000
     29 C           0.8164    2.2888    0.5500 C.3     1  UNL1        0.0000
     30 C          -0.9876   -2.0040    0.9744 C.3     1  UNL1        0.0000
     31 C          -2.7541    1.8784   -0.2382 C.ar    1  UNL1        0.0000
     32 N          -2.6931    3.1551   -0.1001 N.ar    1  UNL1        0.0000
     33 N          -1.3863    3.0799    0.8652 N.ar    1  UNL1        0.0000
     34 C           0.2673   -0.3358    1.1392 C.ar    1  UNL1        0.0000
     35 C           1.0549   -0.2777    0.6793 C.ar    1  UNL1        0.0000
     36 H          -3.0003   -0.3389    2.5917 H       1  UNL1        0.0000
     37 H          -2.2389   -2.8627    3.1193 H       1  UNL1        0.0000
     38 H          -1.5949   -0.1788    3.6389 H       1  UNL1        0.0000
     39 H           1.8197   -4.7762    0.2572 H       1  UNL1        0.0000
     40 H          -0.7802   -1.9196    2.9474 H       1  UNL1        0.0000
     41 H           2.5493   -2.0295    2.2547 H       1  UNL1        0.0000
     42 H          -1.0696   -3.5305   -0.0003 H       1  UNL1        0.0000
     43 H          -0.6408    0.6563   -3.2014 H       1  UNL1        0.0000
     44 H           2.1189   -0.1532   -2.0464 H       1  UNL1        0.0000
     45 H           0.4846   -2.2785   -2.1425 H       1  UNL1        0.0000
     46 H           1.3537    1.0137    2.0479 H       1  UNL1        0.0000
     47 H          -0.0060   -2.2186   -3.9573 H       1  UNL1        0.0000
     48 H           2.4544   -3.5848   -1.0656 H       1  UNL1        0.0000
     49 H           0.6114   -2.2963    3.6151 H       1  UNL1        0.0000
     50 H          -1.2438   -1.1426   -0.7235 H       1  UNL1        0.0000
     51 H          -1.2438   -1.1426   -0.7235 H       1  UNL1        0.0000
     52 H          -1.0727    2.3941   -2.3867 H       1  UNL1        0.0000
     53 H           2.2799   -2.1514   -2.0333 H       1  UNL1        0.0000
     54 H          -1.0375    2.2196   -0.7695 H       1  UNL1        0.0000
     55 H           0.2390   -1.5988   -0.1922 H       1  UNL1        0.0000
     56 H           3.0620    1.9323   -0.1568 H       1  UNL1        0.0000
     57 H           1.8017   -1.1104   -3.0631 H       1  UNL1        0.0000
     58 H          -3.4492   -0.6800   -2.2910 H       1  UNL1        0.0000
     59 H           1.6755   -0.5659    2.3944 H       1  UNL1        0.0000
     60 H          -2.5011    1.9789    1.4699 H       1  UNL1        0.0000
     61 H           2.7831    1.6864   -2.2076 H       1  UNL1        0.0000
     62 H           2.8323    2.4482   -1.6905 H       1  UNL1        0.0000
     63 H          -0.1894    1.2242    2.6084 H       1  UNL1        0.0000
     64 H           2.2987   -2.8667    0.8505 H       1  UNL1        0.0000
     65 H          -2.1196   -3.0646    1.2927 H       1  UNL1        0.0000
     66 H          -1.7799    1.0349    2.3322 H       1  UNL1        0.0000
     67 H           2.5260    1.7014    1.4673 H       1  UNL1        0.0000
     68 EU          1.2664    2.8205   -1.6728 Eu      1  UNL1        0.0000
@<TRIPOS>BOND
     1     1     2    2
     2     2     3   am
     3     3     4    1
     4     3     5    1
     5     5     6    1
     6     6     7    1
     7     2     8    1
     8     8     9   ar
     9     9    10   ar
    10     8    11   ar
    11    11    12   ar
    12    12    13   ar
    13    10    13   ar
    14    13    14   ar
    15    14    15   ar
    16    15    16   ar
    17    16    17   ar
    18    12    17   ar
    19    17    18   ar
    20    18    19   ar
    21    19    20    1
    22    20    21   ar
    23    21    22   ar
    24    22    23    1
    25    23    24    1
    26    23    25    1
    27    23    26    1
    28    26    27    1
    29    27    28    1
    30    28    29    1
    31    28    30    1
    32    22    31   ar
    33    28    31    1
    34    31    32   ar
    35    32    33   ar
    36    20    33   ar
    37    19    34   ar
    38    34    35   ar
    39    16    35   ar
    40     4    36    1
    41     4    37    1
    42     4    38    1
    43     5    39    1
    44     5    40    1
    45     6    41    1
    46     6    42    1
    47     7    43    1
    48     7    44    1
    49     7    45    1
    50     9    46    1
    51    10    47    1
    52    14    48    1
    53    15    49    1
    54    24    50    1
    55    24    51    1
    56    24    52    1
    57    25    53    1
    58    25    54    1
    59    25    55    1
    60    26    56    1
    61    26    57    1
    62    27    58    1
    63    27    59    1
    64    29    60    1
    65    29    61    1
    66    29    62    1
    67    30    63    1
    68    30    64    1
    69    30    65    1
    70    34    66    1
    71    35    67    1
    72    68     1    1
    73    68    33    1
    74    68    18    1
    75    68    11    1
@<TRIPOS>MOLECULE
*****
 68 75 0 0 0
SMALL
GASTEIGER

@<TRIPOS>ATOM
      1 O          -2.0112    0.3698   -2.2855 O.2     1  UNL1        0.0000
      2 C          -2.2682    0.6023   -1.6704 C.2     1  UNL1        0.0000
      3 N          -2.4356   -1.0748    1.8775 N.am    1  UNL1        0.0000
      4 C          -2.6732   -1.2299    3.1844 C.3     1  UNL1        0.0000
      5 C          -0.0386   -3.2656    2.2345 C.3     1  UNL1        0.0000
      6 C           0.9156   -2.3927    1.8601 C.3     1  UNL1        0.0000
      7 C           0.5729   -1.8096   -1.8252 C.3     1  UNL1        0.0000
      8 C           0.4848    2.6876   -1.4490 C.ar    1  UNL1        0.0000
      9 C           1.7094    1.1695   -0.9315 C.ar    1  UNL1        0.0000
     10 C           0.1972   -0.9608   -3.6970 C.ar    1  UNL1        0.0000
     11 N           0.9711    2.9341   -1.9195 N.ar    1  UNL1        0.0000
     12 C           1.0470    1.2292   -2.8776 C.ar    1  UNL1        0.0000
     13 C           0.1094   -0.9405   -3.6584 C.ar    1  UNL1        0.0000
     14 C           0.7585   -3.6526   -0.9973 C.ar    1  UNL1        0.0000
     15 C           0.7510   -3.2853    0.1293 C.ar    1  UNL1        0.0000
     16 C           2.1011   -1.4176   -0.2688 C.ar    1  UNL1        0.0000
     17 C           3.0403   -0.4718   -0.5715 C.ar    1  UNL1        0.0000
     18 N           2.8179    0.2936    0.4718 N.ar    1  UNL1        0.0000
     19 C           0.3499   -0.3806    1.3156 C.ar    1  UNL1        0.0000
     20 C          -0.7241   -0.2050    1.8696 C.ar    1  UNL1        0.0000
     21 N          -3.0012   -1.4322    0.2086 N.ar    1  UNL1        0.0000
     22 C          -3.1744   -0.9226   -0.5120 C.ar    1  UNL1        0.0000
     23 C          -1.4870   -1.3625   -1.2812 C.3     1  UNL1        0.0000
     24 C          -0.2639    0.3017   -1.2147 C.3     1  UNL1        0.0000
     25 C           0.0127    0.0700   -1.3086 C.3     1  UNL1        0.0000
     26 C          -0.0512    0.2918   -1.1837 C.3     1  UNL1        0.0000
     27 C          -1.7152    0.5452    0.3069 C.3     1  UNL1        0.0000
     28 C          -0.3299    1.5466    0.8089 C.3     1  UNL1        0.0000
     29 C           0.8164    2.2888    0.5500 C.3     1  UNL1        0.0000
     30 C          -0.9876   -2.0040    0.9744 C.3     1  UNL1        0.0000
     31 C          -2.7541    1.8784   -0.2382 C.ar    1  UNL1        0.0000
     32 N          -2.6931    3.1551   -0.1001 N.ar    1  UNL1        0.0000
     33 N          -1.3863    3.0799    0.8652 N.ar    1  UNL1        0.0000
     34 C           0.2673   -0.3358    1.1392 C.ar    1  UNL1        0.0000
     35 C           1.0549   -0.2777    0.6793 C.ar    1  UNL1        0.0000
     36 H          -3.0003   -0.3389    2.5917 H       1  UNL1        0.0000
     37 H          -2.2389   -2.8627    3.1193 H       1  UNL1        0.0000
     38 H          -1.5949   -0.1788    3.6389 H       1  UNL1        0.0000
     39 H           1.8197   -4.7762    0.2572 H       1  UNL1        0.0000
     40 H          -0.7802   -1.9196    2.9474 H       1  UNL1        0.0000
     41 H           2.5493   -2.0295    2.2547 H       1  UNL1        0.0000
     42 H          -1.0696   -3.5305   -0.0003 H       1  UNL1        0.0000
     43 H          -0.6408    0.6563   -3.2014 H       1  UNL1        0.0000
     44 H           2.1189   -0.1532   -2.0464 H       1  UNL1        0.0000
     45 H           0.4846   -2.2785   -2.1425 H       1  UNL1        0.0000
     46 H           1.3537    1.0137    2.0479 H       1  UNL1        0.0000
     47 H          -0.0060   -2.2186   -3.9573 H       1  UNL1        0.0000
     48 H           2.4544   -3.5848   -1.0656 H       1  UNL1        0.0000
     49 H           0.6114   -2.2963    3.6151 H       1  UNL1        0.0000
     50 H          -1.2438   -1.1426   -0.7235 H       1  UNL1        0.0000
     51 H          -1.2438   -1.1426   -0.7235 H       1  UNL1        0.0000
     52 H          -1.0727    2.3941   -2.3867 H       1  UNL1        0.0000
     53 H           2.2799   -2.1514   -2.0333 H       1  UNL1        0.0000
     54 H          -1.0375    2.2196   -0.7695 H       1  UNL1        0.0000
     55 H           0.2390   -1.5988   -0.1922 H       1  UNL1        0.0000
     56 H           3.0620    1.9323   -0.1568 H       1  UNL1        0.0000
     57 H           1.8017   -1.1104   -3.0631 H       1  UNL1        0.0000
     58 H          -3.4492   -0.6800   -2.2910 H       1  UNL1        0.0000
     59 H           1.6755   -0.5659    2.3944 H       1  UNL1        0.0000
     60 H          -2.5011    1.9789    1.4699 H       1  UNL1        0.0000
     61 H           2.7831    1.6864   -2.2076 H       1  UNL1        0.0000
     62 H           2.8323    2.4482   -1.6905 H       1  UNL1        0.0000
     63 H          -0.1894    1.2242    2.6084 H       1  UNL1        0.0000
     64 H           2.2987   -2.8667    0.8505 H       1  UNL1        0.0000
     65 H          -2.1196   -3.0646    1.2927 H       1  UNL1        0.0000
     66 H          -1.7799    1.0349    2.3322 H       1  UNL1        0.0000
     67 H           2.5260    1.7014    1.4673 H       1  UNL1        0.0000
     68 EU          1.2664    2.8205   -1.6728 Eu      1  UNL1        0.0000
@<TRIPOS>BOND
     1     1     2    2
     2     2     3   am
     3     3     4    1
     4     3     5    1
     5     5     6    1
     6     6     7    1
     7     2     8    1
     8     8     9   ar
     9     9    10   ar
    10     8    11   ar
    11    11    12   ar
    12    12    13   ar
    13    10    13   ar
    14    13    14   ar
    15    14    15   ar
    16    15    16   ar
    17    16    17   ar
    18    12    17   ar
    19    17    18   ar
    20    18    19   ar
    21    19    20    1
    22    20    21   ar
    23    21    22   ar
    24    22    23    1
    25    23    24    1
    26    23    25    1
    27    23    26    1
    28    26    27    1
    29    27    28    1
    30    28    29    1
    31    28    30    1
    32    22    31   ar
    33    28    31    1
    34    31    32   ar
    35    32    33   ar
    36    20    33   ar
    37    19    34   ar
    38    34    35   ar
    39    16    35   ar
    40     4    36    1
    41     4    37    1
    42     4    38    1
    43     5    39    1
    44     5    40    1
    45     6    41    1
    46     6    42    1
    47     7    43    1
    48     7    44    1
    49     7    45    1
    50     9    46    1
    51    10    47    1
    52    14    48    1
    53    15    49    1
    54    24    50    1
    55    24    51    1
    56    24    52    1
    57    25    53    1
    58    25    54    1
    59    25    55    1
    60    26    56    1
    61    26    57    1
    62    27    58    1
    63    27    59    1
    64    29    60    1
    65    29    61    1
    66    29    62    1
    67    30    63    1
    68    30    64    1
    69    30    65    1
    70    34    66    1
    71    35    67    1
    72    68     1    1
    73    68    33    1
    74    68    18    1
    75    68    11    1
@<TRIPOS>MOLECULE
*****
 68 75 0 0 0
SMALL
GASTEIGER

@<TRIPOS>ATOM
      1 O          -2.0112    0.3698   -2.2855 O.2     1  UNL1        0.0000
      2 C          -2.2682    0.6023   -1.6704 C.2     1  UNL1        0.0000
      3 N          -2.4356   -1.0748    1.8775 N.am    1  UNL1        0.0000
      4 C          -2.6732   -1.2299    3.1844 C.3     1  UNL1        0.0000
      5 C          -0.0386   -3.2656    2.2345 C.3     1  UNL1        0.0000
      6 C           0.9156   -2.3927    1.8601 C.3     1  UNL1        0.0000
      7 C           0.5729   -1.8096   -1.8252 C.3     1  UNL1        0.0000
      8 C           0.4848    2.6876   -1.4490 C.ar    1  UNL1        0.0000
      9 C           1.7094    1.1695   -0.9315 C.ar    1  UNL1        0.0000
     10 C           0.1972   -0.9608   -3.6970 C.ar    1  UNL1        0.0000
     11 N           0.9711    2.9341   -1.9195 N.ar    1  UNL1        0.0000
     12 C           1.0470    1.2292   -2.8776 C.ar    1  UNL1        0.0000
     13 C           0.1094   -0.9405   -3.6584 C.ar    1  UNL1        0.0000
     14 C           0.7585   -3.6526   -0.9973 C.ar    1  UNL1        0.0000
     15 C           0.7510   -3.2853    0.1293 C.ar    1  UNL1        0.0000
     16 C           2.1011   -1.4176   -0.2688 C.ar    1  UNL1        0.0000
     17 C           3.0403   -0.4718   -0.5715 C.ar    1  UNL1        0.0000
     18 N           2.8179    0.2936    0.4718 N.ar    1  UNL1        0.0000
     19 C           0.3499   -0.3806    1.3156 C.ar    1  UNL1        0.0000
     20 C          -0.7241   -0.2050    1.8696 C.ar    1  UNL1        0.0000
     21 N          -3.0012   -1.4322    0.2086 N.ar    1  UNL1        0.0000
     22 C          -3.1744   -0.9226   -0.5120 C.ar    1  UNL1        0.0000
     23 C          -1.4870   -1.3625   -1.2812 C.3     1  UNL1        0.0000
     24 C          -0.2639    0.3017   -1.2147 C.3     1  UNL1        0.0000
     25 C           0.0127    0.0700   -1.3086 C.3     1  UNL1        0.0000
     26 C          -0.0512    0.2918   -1.1837 C.3     1  UNL1        0.0000
     27 C          -1.7152    0.5452    0.3069 C.3     1  UNL1        0.0000
     28 C          -0.3299    1.5466    0.8089 C.3     1  UNL1        0.0000
     29 C           0.8164    2.2888    0.5500 C.3     1  UNL1        0.0000
     30 C          -0.9876   -2.0040    0.9744 C.3     1  UNL1        0.0000
     31 C          -2.7541    1.8784   -0.2382 C.ar    1  UNL1        0.0000
     32 N          -2.6931    3.1551   -0.1001 N.ar    1  UNL1        0.0000
     33 N          -1.3863    3.0799    0.8652 N.ar    1  UNL1        0.0000
     34 C           0.2673   -0.3358    1.1392 C.ar    1  UNL1        0.0000
     35 C           1.0549   -0.2777    0.6793 C.ar    1  UNL1        0.0000
     36 H          -3.0003   -0.3389    2.5917 H       1  UNL1        0.0000
     37 H          -2.2389   -2.8627    3.1193 H       1  UNL1        0.0000
     38 H          -1.5949   -0.1788    3.6389 H       1  UNL1        0.0000
     39 H           1.8197   -4.7762    0.2572 H       1  UNL1        0.0000
     40 H          -0.7802   -1.9196    2.9474 H       1  UNL1        0.0000
     41 H           2.5493   -2.0295    2.2547 H       1  UNL1        0.0000
     42 H          -1.0696   -3.5305   -0.0003 H       1  UNL1        0.0000
     43 H          -0.6408    0.6563   -3.2014 H       1  UNL1        0.0000
     44 H           2.1189   -0.1532   -2.0464 H       1  UNL1        0.0000
     45 H           0.4846   -2.2785   -2.1425 H       1  UNL1        0.0000
     46 H           1.3537    1.0137    2.0479 H       1  UNL1        0.0000
     47 H          -0.0060   -2.2186   -3.9573 H       1  UNL1        0.0000
     48 H           2.4544   -3.5848   -1.0656 H       1  UNL1        0.0000
     49 H           0.6114   -2.2963    3.6151 H       1  UNL1        0.0000
     50 H          -1.2438   -1.1426   -0.7235 H       1  UNL1        0.0000
     51 H          -1.2438   -1.1426   -0.7235 H       1  UNL1        0.0000
     52 H          -1.0727    2.3941   -2.3867 H       1  UNL1        0.0000
     53 H           2.2799   -2.1514   -2.0333 H       1  UNL1        0.0000
     54 H          -1.0375    2.2196   -0.7695 H       1  UNL1        0.0000
     55 H           0.2390   -1.5988   -0.1922 H       1  UNL1        0.0000
     56 H           3.0620    1.9323   -0.1568 H       1  UNL1        0.0000
     57 H           1.8017   -1.1104   -3.0631 H       1  UNL1        0.0000
     58 H          -3.4492   -0.6800   -2.2910 H       1  UNL1        0.0000
     59 H           1.6755   -0.5659    2.3944 H       1  UNL1        0.0000
     60 H          -2.5011    1.9789    1.4699 H       1  UNL1        0.0000
     61 H           2.7831    1.6864   -2.2076 H       1  UNL1        0.0000
     62 H           2.8323    2.4482   -1.6905 H       1  UNL1        0.0000
     63 H          -0.1894    1.2242    2.6084 H       1  UNL1        0.0000
     64 H           2.2987   -2.8667    0.8505 H       1  UNL1        0.0000
     65 H          -2.1196   -3.0646    1.2927 H       1  UNL1        0.0000
     66 H          -1.7799    1.0349    2.3322 H       1  UNL1        0.0000
     67 H           2.5260    1.7014    1.4673 H       1  UNL1        0.0000
     68 EU          1.2664    2.8205   -1.6728 Eu      1  UNL1        0.0000
@<TRIPOS>BOND
     1     1     2    2
     2     2     3   am
     3     3     4    1
     4     3     5    1
     5     5     6    1
     6     6     7    1
     7     2     8    1
     8     8     9   ar
     9     9    10   ar
    10     8    11   ar
    11    11    12   ar
    12    12    13   ar
    13    10    13   ar
    14    13    14   ar
    15    14    15   ar
    16    15    16   ar
    17    16    17   ar
    18    12    17   ar
    19    17    18   ar
    20    18    19   ar
    21    19    20    1
    22    20    21   ar
    23    21    22   ar
    24    22    23    1
    25    23    24    1
    26    23    25    1
    27    23    26    1
    28    26    27    1
    29    27    28    1
    30    28    29    1
    31    28    30    1
    32    22    31   ar
    33    28    31    1
    34    31    32   ar
    35    32    33   ar
    36    20    33   ar
    37    19    34   ar
    38    34    35   ar
    39    16    35   ar
    40     4    36    1
    41     4    37    1
    42     4    38    1
    43     5    39    1
    44     5    40    1
    45     6    41    1
    46     6    42    1
    47     7    43    1
    48     7    44    1
    49     7    45    1
    50     9    46    1
    51    10    47    1
    52    14    48    1
    53    15    49    1
    54    24    50    1
    55    24    51    1
    56    24    52    1
    57    25    53    1
    58    25    54    1
    59    25    55    1
    60    26    56    1
    61    26    57    1
    62    27    58    1
    63    27    59    1
    64    29    60    1
    65    29    61    1
    66    29    62    1
    67    30    63    1
    68    30    64    1
    69    30    65    1
    70    34    66    1
    71    35    67    1
    72    68     1    1
    73    68    33    1
    74    68    18    1
    75    68    11    1
@<TRIPOS>MOLECULE
*****
 68 75 0 0 0
SMALL
GASTEIGER

@<TRIPOS>ATOM
      1 O          -2.0112    0.3698   -2.2855 O.2     1  UNL1        0.0000
      2 C          -2.2682    0.6023   -1.6704 C.2     1  UNL1        0.0000
      3 N          -2.4356   -1.0748    1.8775 N.am    1  UNL1        0.0000
      4 C          -2.6732   -1.2299    3.1844 C.3     1  UNL1        0.0000
      5 C          -0.0386   -3.2656    2.2345 C.3     1  UNL1        0.0000
      6 C           0.9156   -2.3927    1.8601 C.3     1  UNL1        0.0000
      7 C           0.5729   -1.8096   -1.8252 C.3     1  UNL1        0.0000
      8 C           0.4848    2.6876   -1.4490 C.ar    1  UNL1        0.0000
      9 C           1.7094    1.1695   -0.9315 C.ar    1  UNL1        0.0000
     10 C           0.1972   -0.9608   -3.6970 C.ar    1  UNL1        0.0000
     11 N           0.9711    2.9341   -1.9195 N.ar    1  UNL1        0.0000
     12 C           1.0470    1.2292   -2.8776 C.ar    1  UNL1        0.0000
     13 C           0.1094   -0.9405   -3.6584 C.ar    1  UNL1        0.0000
     14 C           0.7585   -3.6526   -0.9973 C.ar    1  UNL1        0.0000
     15 C           0.7510   -3.2853    0.1293 C.ar    1  UNL1        0.0000
     16 C           2.1011   -1.4176   -0.2688 C.ar    1  UNL1        0.0000
     17 C           3.0403   -0.4718   -0.5715 C.ar    1  UNL1        0.0000
     18 N           2.8179    0.2936    0.4718 N.ar    1  UNL1        0.0000
     19 C           0.3499   -0.3806    1.3156 C.ar    1  UNL1        0.0000
     20 C          -0.7241   -0.2050    1.8696 C.ar    1  UNL1        0.0000
     21 N          -3.0012   -1.4322    0.2086 N.ar    1  UNL1        0.0000
     22 C          -3.1744   -0.9226   -0.5120 C.ar    1  UNL1        0.0000
     23 C          -1.4870   -1.3625   -1.2812 C.3     1  UNL1        0.0000
     24 C          -0.2639    0.3017   -1.2147 C.3     1  UNL1        0.0000
     25 C           0.0127    0.0700   -1.3086 C.3     1  UNL1        0.0000
     26 C          -0.0512    0.2918   -1.1837 C.3     1  UNL1        0.0000
     27 C          -1.7152    0.5452    0.3069 C.3     1  UNL1        0.0000
     28 C          -0.3299    1.5466    0.8089 C.3     1  UNL1        0.0000
     29 C           0.8164    2.2888    0.5500 C.3     1  UNL1        0.0000
     30 C          -0.9876   -2.0040    0.9744 C.3     1  UNL1        0.0000
     31 C          -2.7541    1.8784   -0.2382 C.ar    1  UNL1        0.0000
     32 N          -2.6931    3.1551   -0.1001 N.ar    1  UNL1        0.0000
     33 N          -1.3863    3.0799    0.8652 N.ar    1  UNL1        0.0000
     34 C           0.2673   -0.3358    1.1392 C.ar    1  UNL1        0.0000
     35 C           1.0549   -0.2777    0.6793 C.ar    1  UNL1        0.0000
     36 H          -3.0003   -0.3389    2.5917 H       1  UNL1        0.0000
     37 H          -2.2389   -2.8627    3.1193 H       1  UNL1        0.0000
     38 H          -1.5949   -0.1788    3.6389 H       1  UNL1        0.0000
     39 H           1.8197   -4.7762    0.2572 H       1  UNL1        0.0000
     40 H          -0.7802   -1.9196    2.9474 H       1  UNL1        0.0000
     41 H           2.5493   -2.0295    2.2547 H       1  UNL1        0.0000
     42 H          -1.0696   -3.5305   -0.0003 H       1  UNL1        0.0000
     43 H          -0.6408    0.6563   -3.2014 H       1  UNL1        0.0000
     44 H           2.1189   -0.1532   -2.0464 H       1  UNL1        0.0000
     45 H           0.4846   -2.2785   -2.1425 H       1  UNL1        0.0000
     46 H           1.3537    1.0137    2.0479 H       1  UNL1        0.0000
     47 H          -0.0060   -2.2186   -3.9573 H       1  UNL1        0.0000
     48 H           2.4544   -3.5848   -1.0656 H       1  UNL1        0.0000
     49 H           0.6114   -2.2963    3.6151 H       1  UNL1        0.0000
     50 H          -1.2438   -1.1426   -0.7235 H       1  UNL1        0.0000
     51 H          -1.2438   -1.1426   -0.7235 H       1  UNL1        0.0000
     52 H          -1.0727    2.3941   -2.3867 H       1  UNL1        0.0000
     53 H           2.2799   -2.1514   -2.0333 H       1  UNL1        0.0000
     54 H          -1.0375    2.2196   -0.7695 H       1  UNL1        0.0000
     55 H           0.2390   -1.5988   -0.1922 H       1  UNL1        0.0000
     56 H           3.0620    1.9323   -0.1568 H       1  UNL1        0.0000
     57 H           1.8017   -1.1104   -3.0631 H       1  UNL1        0.0000
     58 H          -3.4492   -0.6800   -2.2910 H       1  UNL1        0.0000
     59 H           1.6755   -0.5659    2.3944 H       1  UNL1        0.0000
     60 H          -2.5011    1.9789    1.4699 H       1  UNL1        0.0000
     61 H           2.7831    1.6864   -2.2076 H       1  UNL1        0.0000
     62 H           2.8323    2.4482   -1.6905 H       1  UNL1        0.0000
     63 H          -0.1894    1.2242    2.6084 H       1  UNL1        0.0000
     64 H           2.2987   -2.8667    0.8505 H       1  UNL1        0.0000
     65 H          -2.1196   -3.0646    1.2927 H       1  UNL1        0.0000
     66 H          -1.7799    1.0349    2.3322 H       1  UNL1        0.0000
     67 H           2.5260    1.7014    1.4673 H       1  UNL1        0.0000
     68 EU          1.2664    2.8205   -1.6728 Eu      1  UNL1        0.0000
@<TRIPOS>BOND
     1     1     2    2
     2     2     3   am
     3     3     4    1
     4     3     5    1
     5     5     6    1
     6     6     7    1
     7     2     8    1
     8     8     9   ar
     9     9    10   ar
    10     8    11   ar
    11    11    12   ar
    12    12    13   ar
    13    10    13   ar
    14    13    14   ar
    15    14    15   ar
    16    15    16   ar
    17    16    17   ar
    18    12    17   ar
    19    17    18   ar
    20    18    19   ar
    21    19    20    1
    22    20    21   ar
    23    21    22   ar
    24    22    23    1
    25    23    24    1
    26    23    25    1
    27    23    26    1
    28    26    27    1
    29    27    28    1
    30    28    29    1
    31    28    30    1
    32    22    31   ar
    33    28    31    1
    34    31    32   ar
    35    32    33   ar
    36    20    33   ar
    37    19    34   ar
    38    34    35   ar
    39    16    35   ar
    40     4    36    1
    41     4    37    1
    42     4    38    1
    43     5    39    1
    44     5    40    1
    45     6    41    1
    46     6    42    1
    47     7    43    1
    48     7    44    1
    49     7    45    1
    50     9    46    1
    51    10    47    1
    52    14    48    1
    53    15    49    1
    54    24    50    1
    55    24    51    1
    56    24    52    1
    57    25    53    1
    58    25    54    1
    59    25    55    1
    60    26    56    1
    61    26    57    1
    62    27    58    1
    63    27    59    1
    64    29    60    1
    65    29    61    1
    66    29    62    1
    67    30    63    1
    68    30    64    1
    69    30    65    1
    70    34    66    1
    71    35    67    1
    72    68     1    1
    73    68    33    1
    74    68    18    1
    75    68    11    1
@<TRIPOS>MOLECULE
*****
 68 75 0 0 0
SMALL
GASTEIGER

@<TRIPOS>ATOM
      1 O          -2.4896    0.5514   -2.0758 O.2     1  UNL1        0.0000
      2 C          -1.6156    0.7059   -1.6927 C.2     1  UNL1        0.0000
      3 N          -2.6943   -2.5612    2.2669 N.am    1  UNL1        0.0000
      4 C          -3.5335   -1.6154    2.2367 C.3     1  UNL1        0.0000
      5 C          -0.0111   -2.7656    2.9114 C.3     1  UNL1        0.0000
      6 C           0.9467   -2.1088    1.9351 C.3     1  UNL1        0.0000
      7 C           0.1122   -1.1556   -1.5795 C.3     1  UNL1        0.0000
      8 C           0.0568    1.9827   -1.1533 C.ar    1  UNL1        0.0000
      9 C           2.5070    0.8310   -0.7121 C.ar    1  UNL1        0.0000
     10 C           0.1868   -1.3067   -4.0911 C.ar    1  UNL1        0.0000
     11 N           1.2011    2.5384   -1.5113 N.ar    1  UNL1        0.0000
     12 C           1.2969    1.6884   -3.5287 C.ar    1  UNL1        0.0000
     13 C           0.3918   -1.5306   -4.0053 C.ar    1  UNL1        0.0000
     14 C           0.4868   -4.3640   -1.1419 C.ar    1  UNL1        0.0000
     15 C           1.1995   -2.6962    0.3103 C.ar    1  UNL1        0.0000
     16 C           2.0941   -0.4605   -0.2249 C.ar    1  UNL1        0.0000
     17 C           3.5391   -0.6724   -0.7841 C.ar    1  UNL1        0.0000
     18 N           2.4317    0.2851    0.0186 N.ar    1  UNL1        0.0000
     19 C          -0.4949   -1.3924    1.2243 C.ar    1  UNL1        0.0000
     20 C           0.1662    0.0922    1.8337 C.ar    1  UNL1        0.0000
     21 N          -2.2046   -1.4935    0.1685 N.ar    1  UNL1        0.0000
     22 C          -2.6990   -1.7061   -0.4902 C.ar    1  UNL1        0.0000
     23 C          -2.0747   -2.0586   -0.7812 C.3     1  UNL1        0.0000
     24 C           0.2977    0.1932   -2.0196 C.3     1  UNL1        0.0000
     25 C          -0.7530   -0.4679   -0.7980 C.3     1  UNL1        0.0000
     26 C           0.0779    0.7918   -0.7366 C.3     1  UNL1        0.0000
     27 C          -1.7110    0.9640    0.2719 C.3     1  UNL1        0.0000
     28 C          -0.2257    1.5008    0.6011 C.3     1  UNL1        0.0000
     29 C           0.5723    2.2486    0.6772 C.3     1  UNL1        0.0000
     30 C          -0.4876   -1.6534    1.0987 C.3     1  UNL1        0.0000
     31 C          -2.8678    1.9855   -0.4805 C.ar    1  UNL1        0.0000
     32 N          -2.3055    3.4230    0.2592 N.ar    1  UNL1        0.0000
     33 N          -1.5652    2.9968    0.5242 N.ar    1  UNL1        0.0000
     34 C          -0.3982   -0.2856    1.0304 C.ar    1  UNL1        0.0000
     35 C           1.7733   -0.7511    0.0222 C.ar    1  UNL1        0.0000
     36 H          -3.1623   -1.0017    2.7681 H       1  UNL1        0.0000
     37 H          -1.6556   -3.5199    3.4614 H       1  UNL1        0.0000
     38 H          -1.6675   -0.3441    3.5086 H       1  UNL1        0.0000
     39 H           2.4274   -4.5272   -0.0092 H       1  UNL1        0.0000
     40 H          -1.1869   -1.7251    2.5833 H       1  UNL1        0.0000
     41 H           2.9583   -1.7796    2.7344 H       1  UNL1        0.0000
     42 H          -1.1588   -3.5435   -0.7346 H       1  UNL1        0.0000
     43 H          -0.2228    0.6980   -2.7771 H       1  UNL1        0.0000
     44 H           1.8383   -0.5645   -1.5528 H       1  UNL1        0.0000
     45 H           0.3097   -3.1745   -1.6047 H       1  UNL1        0.0000
     46 H           1.6415    0.7149    1.6669 H       1  UNL1        0.0000
     47 H           0.4940   -2.0540   -3.9408 H       1  UNL1        0.0000
     48 H           2.2638   -4.0578   -1.2548 H       1  UNL1        0.0000
     49 H           0.5493   -2.6784    3.6258 H       1  UNL1        0.0000
     50 H          -1.2932   -1.5313    0.2680 H       1  UNL1        0.0000
     51 H          -0.9477   -1.4339   -0.2664 H       1  UNL1        0.0000
     52 H          -2.0657    2.2858   -3.2114 H       1  UNL1        0.0000
     53 H           2.4816   -2.7646   -2.0280 H       1  UNL1        0.0000
     54 H          -1.0514    1.8034   -0.2554 H       1  UNL1        0.0000
     55 H           0.5775   -1.1247   -1.4888 H       1  UNL1        0.0000
     56 H           3.3280    2.1430    0.0631 H       1  UNL1        0.0000
     57 H           2.1829   -1.4478   -3.5108 H       1  UNL1        0.0000
     58 H          -3.9598   -0.7562   -2.6621 H       1  UNL1        0.0000
     59 H           0.9355   -0.7656    1.9298 H       1  UNL1        0.0000
     60 H          -2.8892    2.0705    1.9760 H       1  UNL1        0.0000
     61 H           3.7764    2.2072   -2.3357 H       1  UNL1        0.0000
     62 H           2.9793    2.9482   -0.9843 H       1  UNL1        0.0000
     63 H          -0.4180    1.1610    3.0676 H       1  UNL1        0.0000
     64 H           1.1328   -2.9946    0.8309 H       1  UNL1        0.0000
     65 H          -2.5896   -2.9293    1.5359 H       1  UNL1        0.0000
     66 H          -1.5800    1.5812    2.9784 H       1  UNL1        0.0000
     67 H           2.9210    1.8103    1.8630 H       1  UNL1        0.0000
     68 EU          0.7436    2.3590   -1.8530 Eu      1  UNL1        0.0000
@<TRIPOS>BOND
     1     1     2    2
     2     2     3   am
     3     3     4    1
     4     3     5    1
     5     5     6    1
     6     6     7    1
     7     2     8    1
     8     8     9   ar
     9     9    10   ar
    10     8    11   ar
    11    11    12   ar
    12    12    13   ar
    13    10    13   ar
    14    13    14   ar
    15    14    15   ar
    16    15    16   ar
    17    16    17   ar
    18    12    17   ar
    19    17    18   ar
    20    18    19   ar
    21    19    20    1
    22    20    21   ar
    23    21    22   ar
    24    22    23    1
    25    23    24    1
    26    23    25    1
    27    23    26    1
    28    26    27    1
    29    27    28    1
    30    28    29    1
    31    28    30    1
    32    22    31   ar
    33    28    31    1
    34    31    32   ar
    35    32    33   ar
    36    20    33   ar
    37    19    34   ar
    38    34    35   ar
    39    16    35   ar
    40     4    36    1
    41     4    37    1
    42     4    38    1
    43     5    39    1
    44     5    40    1
    45     6    41    1
    46     6    42    1
    47     7    43    1
    48     7    44    1
    49     7    45    1
    50     9    46    1
    51    10    47    1
    52    14    48    1
    53    15    49    1
    54    24    50    1
    55    24    51    1
    56    24    52    1
    57    25    53    1
    58    25    54    1
    59    25    55    1
    60    26    56    1
    61    26    57    1
    62    27    58    1
    63    27    59    1
    64    29    60    1
    65    29    61    1
    66    29    62    1
    67    30    63    1
    68    30    64    1
    69    30    65    1
    70    34    66    1
    71    35    67    1
    72    68     1    1
    73    68    33    1
    74    68    18    1
    75    68    11    1
@<TRIPOS>MOLECULE
*****
 68 75 0 0 0
SMALL
GASTEIGER

@<TRIPOS>ATOM
      1 O          -2.2715    0.8083   -2.2346 O.2     1  UNL1        0.0000
      2 C          -2.0578    0.3968   -1.5992 C.2     1  UNL1        0.0000
      3 N          -2.5533   -2.0249    2.2489 N.am    1  UNL1        0.0000
      4 C          -3.5240   -1.7137    2.5008 C.3     1  UNL1        0.0000
      5 C          -0.2389   -2.9304    2.7698 C.3     1  UNL1        0.0000
      6 C           1.0616   -2.2125    2.0952 C.3     1  UNL1        0.0000
      7 C          -0.4441   -1.7350   -2.0911 C.3     1  UNL1        0.0000
      8 C           0.7009    2.3263   -1.2830 C.ar    1  UNL1        0.0000
      9 C           1.9621    1.1868   -1.1868 C.ar    1  UNL1        0.0000
     10 C           0.2144   -1.3560   -4.0333 C.ar    1  UNL1        0.0000
     11 N           0.7150    2.6404   -2.0656 N.ar    1  UNL1        0.0000
     12 C           1.6401    1.2161   -3.2211 C.ar    1  UNL1        0.0000
     13 C           0.5524   -1.4548   -4.1507 C.ar    1  UNL1        0.0000
     14 C           0.9500   -4.0671   -1.2297 C.ar    1  UNL1        0.0000
     15 C           1.2804   -2.5800    0.0122 C.ar    1  UNL1        0.0000
     16 C           2.2267   -1.2793   -0.1654 C.ar    1  UNL1        0.0000
     17 C           3.2189   -0.3699   -0.5112 C.ar    1  UNL1        0.0000
     18 N           2.7503    0.5673    0.4877 N.ar    1  UNL1        0.0000
     19 C          -0.0701   -0.5693    1.4966 C.ar    1  UNL1        0.0000
     20 C          -0.6865   -0.1627    1.9203 C.ar    1  UNL1        0.0000
     21 N          -2.8045   -1.1322    0.3830 N.ar    1  UNL1        0.0000
     22 C          -2.9840   -1.0213   -0.5444 C.ar    1  UNL1        0.0000
     23 C          -2.0151   -1.8443   -0.8471 C.3     1  UNL1        0.0000
     24 C           0.1611    0.1816   -1.6530 C.3     1  UNL1        0.0000
     25 C          -0.2578   -0.0926   -0.8531 C.3     1  UNL1        0.0000
     26 C           0.0318    0.3712   -0.7852 C.3     1  UNL1        0.0000
     27 C          -1.8388    0.8053    0.4346 C.3     1  UNL1        0.0000
     28 C          -0.0959    1.4477    0.7185 C.3     1  UNL1        0.0000
     29 C           0.6775    2.3003    0.7669 C.3     1  UNL1        0.0000
     30 C          -0.6022   -2.5665    0.9510 C.3     1  UNL1        0.0000
     31 C          -2.6495    1.8887   -0.3282 C.ar    1  UNL1        0.0000
     32 N          -2.5504    3.3600    0.1221 N.ar    1  UNL1        0.0000
     33 N          -1.3479    3.0700    0.7809 N.ar    1  UNL1        0.0000
     34 C          -0.1903   -0.5095    1.2778 C.ar    1  UNL1        0.0000
     35 C           1.5048   -0.6952    0.1986 C.ar    1  UNL1        0.0000
     36 H          -3.1676   -0.9850    2.7721 H       1  UNL1        0.0000
     37 H          -1.7792   -3.4902    3.4596 H       1  UNL1        0.0000
     38 H          -1.7411   -0.3755    3.4977 H       1  UNL1        0.0000
     39 H           2.3442   -4.4820    0.1762 H       1  UNL1        0.0000
     40 H          -1.2085   -1.7889    2.6403 H       1  UNL1        0.0000
     41 H           2.9136   -1.7909    2.7186 H       1  UNL1        0.0000
     42 H          -1.0671   -3.5399   -0.6326 H       1  UNL1        0.0000
     43 H          -0.4606    0.8273   -3.1159 H       1  UNL1        0.0000
     44 H           2.0018   -0.4649   -1.9427 H       1  UNL1        0.0000
     45 H           0.1200   -2.7442   -1.8288 H       1  UNL1        0.0000
     46 H           1.6523    0.8211    1.6242 H       1  UNL1        0.0000
     47 H          -0.2952   -2.6328   -4.1822 H       1  UNL1        0.0000
     48 H           2.2359   -4.3339   -1.4258 H       1  UNL1        0.0000
     49 H           0.9180   -2.6165    3.9294 H       1  UNL1        0.0000
     50 H          -1.2095   -1.4679   -0.1675 H       1  UNL1        0.0000
     51 H          -1.0576   -1.6025   -0.3751 H       1  UNL1        0.0000
     52 H          -1.9758    2.2399   -3.1790 H       1  UNL1        0.0000
     53 H           2.3745   -2.6520   -1.9876 H       1  UNL1        0.0000
     54 H          -0.9663    2.0114   -0.6677 H       1  UNL1        0.0000
     55 H           0.9809   -1.3563   -1.3656 H       1  UNL1        0.0000
     56 H           3.2642    2.0836    0.1091 H       1  UNL1        0.0000
     57 H           2.1641   -1.3756   -3.3838 H       1  UNL1        0.0000
     58 H          -3.8813   -0.6961   -2.5478 H       1  UNL1        0.0000
     59 H           1.4881   -0.5361    2.1191 H       1  UNL1        0.0000
     60 H          -2.8091    2.0976    1.9034 H       1  UNL1        0.0000
     61 H           3.6542    2.2106   -2.2158 H       1  UNL1        0.0000
     62 H           2.8782    3.0027   -1.0114 H       1  UNL1        0.0000
     63 H          -0.3043    1.0446    3.0652 H       1  UNL1        0.0000
     64 H           1.0557   -3.6966    1.2792 H       1  UNL1        0.0000
     65 H          -2.4826   -3.2021    1.0757 H       1  UNL1        0.0000
     66 H          -1.6961    1.6011    2.7633 H       1  UNL1        0.0000
     67 H           2.9037    1.7466    1.8118 H       1  UNL1        0.0000
     68 EU          0.5777    2.5859   -2.0835 Eu      1  UNL1        0.0000
@<TRIPOS>BOND
     1     1     2    2
     2     2     3   am
     3     3     4    1
     4     3     5    1
     5     5     6    1
     6     6     7    1
     7     2     8    1
     8     8     9   ar
     9     9    10   ar
    10     8    11   ar
    11    11    12   ar
    12    12    13   ar
    13    10    13   ar
    14    13    14   ar
    15    14    15   ar
    16    15    16   ar
    17    16    17   ar
    18    12    17   ar
    19    17    18   ar
    20    18    19   ar
    21    19    20    1
    22    20    21   ar
    23    21    22   ar
    24    22    23    1
    25    23    24    1
    26    23    25    1
    27    23    26    1
    28    26    27    1
    29    27    28    1
    30    28    29    1
    31    28    30    1
    32    22    31   ar
    33    28    31    1
    34    31    32   ar
    35    32    33   ar
    36    20    33   ar
    37    19    34   ar
    38    34    35   ar
    39    16    35   ar
    40     4    36    1
    41     4    37    1
    42     4    38    1
    43     5    39    1
    44     5    40    1
    45     6    41    1
    46     6    42    1
    47     7    43    1
    48     7    44    1
    49     7    45    1
    50     9    46    1
    51    10    47    1
    52    14    48    1
    53    15    49    1
    54    24    50    1
    55    24    51    1
    56    24    52    1
    57    25    53    1
    58    25    54    1
    59    25    55    1
    60    26    56    1
    61    26    57    1
    62    27    58    1
    63    27    59    1
    64    29    60    1
    65    29    61    1
    66    29    62    1
    67    30    63    1
    68    30    64    1
    69    30    65    1
    70    34    66    1
    71    35    67    1
    72    68     1    1
    73    68    33    1
    74    68    18    1
    75    68    11    1
@<TRIPOS>MOLECULE
*****
 68 75 0 0 0
SMALL
GASTEIGER

@<TRIPOS>ATOM
      1 O          -2.2966    0.7804   -2.2444 O.2     1  UNL1        0.0000
      2 C          -2.0647    0.3634   -1.5430 C.2     1  UNL1        0.0000
      3 N          -2.3448   -1.8250    2.0359 N.am    1  UNL1        0.0000
      4 C          -3.3911   -1.7609    2.6361 C.3     1  UNL1        0.0000
      5 C          -0.2306   -3.0211    2.7666 C.3     1  UNL1        0.0000
      6 C           1.0522   -2.2745    2.0054 C.3     1  UNL1        0.0000
      7 C          -0.3870   -1.8861   -2.1171 C.3     1  UNL1        0.0000
      8 C           0.8086    2.2777   -1.3695 C.ar    1  UNL1        0.0000
      9 C           1.8190    1.2433   -1.2174 C.ar    1  UNL1        0.0000
     10 C           0.2829   -1.2712   -3.9372 C.ar    1  UNL1        0.0000
     11 N           0.7881    2.6385   -2.1086 N.ar    1  UNL1        0.0000
     12 C           1.6841    1.0186   -3.2051 C.ar    1  UNL1        0.0000
     13 C           0.6319   -1.3801   -4.0439 C.ar    1  UNL1        0.0000
     14 C           1.0599   -3.9223   -1.3613 C.ar    1  UNL1        0.0000
     15 C           1.4060   -2.6399    0.0290 C.ar    1  UNL1        0.0000
     16 C           2.2504   -1.4115   -0.0762 C.ar    1  UNL1        0.0000
     17 C           3.1361   -0.3160   -0.5532 C.ar    1  UNL1        0.0000
     18 N           2.6374    0.5822    0.4381 N.ar    1  UNL1        0.0000
     19 C          -0.0544   -0.5136    1.4652 C.ar    1  UNL1        0.0000
     20 C          -0.8410   -0.1520    1.9246 C.ar    1  UNL1        0.0000
     21 N          -2.8420   -1.0800    0.4683 N.ar    1  UNL1        0.0000
     22 C          -3.0777   -0.9490   -0.4084 C.ar    1  UNL1        0.0000
     23 C          -1.9503   -1.6295   -0.8515 C.3     1  UNL1        0.0000
     24 C          -0.0802    0.1171   -1.5032 C.3     1  UNL1        0.0000
     25 C          -0.0290   -0.0986   -1.0141 C.3     1  UNL1        0.0000
     26 C           0.0532    0.2591   -0.8839 C.3     1  UNL1        0.0000
     27 C          -1.7626    0.7883    0.4065 C.3     1  UNL1        0.0000
     28 C          -0.1485    1.4288    0.6689 C.3     1  UNL1        0.0000
     29 C           0.7750    2.3776    0.6986 C.3     1  UNL1        0.0000
     30 C          -0.6816   -2.4952    0.9373 C.3     1  UNL1        0.0000
     31 C          -2.6526    1.8248   -0.2012 C.ar    1  UNL1        0.0000
     32 N          -2.5636    3.2307    0.1375 N.ar    1  UNL1        0.0000
     33 N          -1.3310    2.9889    0.8601 N.ar    1  UNL1        0.0000
     34 C          -0.1234   -0.4769    1.3290 C.ar    1  UNL1        0.0000
     35 C           1.4240   -0.7777    0.4059 C.ar    1  UNL1        0.0000
     36 H          -3.1787   -0.9578    2.7807 H       1  UNL1        0.0000
     37 H          -1.9320   -3.4355    3.4525 H       1  UNL1        0.0000
     38 H          -1.8512   -0.4286    3.5064 H       1  UNL1        0.0000
     39 H           2.2170   -4.4183    0.3536 H       1  UNL1        0.0000
     40 H          -1.2018   -1.8658    2.6980 H       1  UNL1        0.0000
     41 H           2.8476   -1.8113    2.6932 H       1  UNL1        0.0000
     42 H          -0.9572   -3.5205   -0.5256 H       1  UNL1        0.0000
     43 H          -0.4904    0.7348   -3.1737 H       1  UNL1        0.0000
     44 H           1.9577   -0.4773   -2.0245 H       1  UNL1        0.0000
     45 H           0.0127   -2.6377   -1.9133 H       1  UNL1        0.0000
     46 H           1.5285    0.9305    1.6044 H       1  UNL1        0.0000
     47 H          -0.3102   -2.5962   -4.1696 H       1  UNL1        0.0000
     48 H           2.2128   -4.3486   -1.4532 H       1  UNL1        0.0000
     49 H           1.0706   -2.5894    3.8447 H       1  UNL1        0.0000
     50 H          -1.1736   -1.3751   -0.3250 H       1  UNL1        0.0000
     51 H          -1.0905   -1.5122   -0.4643 H       1  UNL1        0.0000
     52 H          -1.8528    2.1833   -3.1274 H       1  UNL1        0.0000
     53 H           2.2476   -2.4920   -1.9399 H       1  UNL1        0.0000
     54 H          -0.9349    2.0079   -0.8274 H       1  UNL1        0.0000
     55 H           1.0216   -1.3904   -1.3511 H       1  UNL1        0.0000
     56 H           3.1760    2.0940    0.0897 H       1  UNL1        0.0000
     57 H           2.1733   -1.3051   -3.2386 H       1  UNL1        0.0000
     58 H          -3.7692   -0.6121   -2.3825 H       1  UNL1        0.0000
     59 H           1.5129   -0.4704    2.2182 H       1  UNL1        0.0000
     60 H          -2.6985    2.1487    1.8046 H       1  UNL1        0.0000
     61 H           3.4844    2.2211   -2.0420 H       1  UNL1        0.0000
     62 H           2.7556    3.0533   -0.9991 H       1  UNL1        0.0000
     63 H          -0.2091    0.9316    3.0853 H       1  UNL1        0.0000
     64 H           0.9573   -3.8720    1.2855 H       1  UNL1        0.0000
     65 H          -2.4157   -3.2630    1.0054 H       1  UNL1        0.0000
     66 H          -1.6376    1.5038    2.6708 H       1  UNL1        0.0000
     67 H           2.8968    1.6739    1.7837 H       1  UNL1        0.0000
     68 EU          0.5610    2.5755   -2.1422 Eu      1  UNL1        0.0000
@<TRIPOS>BOND
     1     1     2    2
     2     2     3   am
     3     3     4    1
     4     3     5    1
     5     5     6    1
     6     6     7    1
     7     2     8    1
     8     8     9   ar
     9     9    10   ar
    10     8    11   ar
    11    11    12   ar
    12    12    13   ar
    13    10    13   ar
    14    13    14   ar
    15    14    15   ar
    16    15    16   ar
    17    16    17   ar
    18    12    17   ar
    19    17    18   ar
    20    18    19   ar
    21    19    20    1
    22    20    21   ar
    23    21    22   ar
    24    22    23    1
    25    23    24    1
    26    23    25    1
    27    23    26    1
    28    26    27    1
    29    27    28    1
    30    28    29    1
    31    28    30    1
    32    22    31   ar
    33    28    31    1
    34    31    32   ar
    35    32    33   ar
    36    20    33   ar
    37    19    34   ar
    38    34    35   ar
    39    16    35   ar
    40     4    36    1
    41     4    37    1
    42     4    38    1
    43     5    39    1
    44     5    40    1
    45     6    41    1
    46     6    42    1
    47     7    43    1
    48     7    44    1
    49     7    45    1
    50     9    46    1
    51    10    47    1
    52    14    48    1
    53    15    49    1
    54    24    50    1
    55    24    51    1
    56    24    52    1
    57    25    53    1
    58    25    54    1
    59    25    55    1
    60    26    56    1
    61    26    57    1
    62    27    58    1
    63    27    59    1
    64    29    60    1
    65    29    61    1
    66    29    62    1
    67    30    63    1
    68    30    64    1
    69    30    65    1
    70    34    66    1
    71    35    67    1
    72    68     1    1
    73    68    33    1
    74    68    18    1
    75    68    11    1
@<TRIPOS>MOLECULE
*****
 68 75 0 0 0
SMALL
GASTEIGER

@<TRIPOS>ATOM
      1 O          -2.3096    0.7703   -2.2456 O.2     1  UNL1        0.0000
      2 C          -2.0846    0.3714   -1.5451 C.2     1  UNL1        0.0000
      3 N          -2.2680   -1.7782    1.9978 N.am    1  UNL1        0.0000
      4 C          -3.3313   -1.7816    2.6856 C.3     1  UNL1        0.0000
      5 C          -0.2268   -3.0542    2.7532 C.3     1  UNL1        0.0000
      6 C           1.0456   -2.3006    1.9810 C.3     1  UNL1        0.0000
      7 C          -0.3575   -1.9489   -2.1045 C.3     1  UNL1        0.0000
      8 C           0.8236    2.2555   -1.3981 C.ar    1  UNL1        0.0000
      9 C           1.7785    1.2711   -1.2268 C.ar    1  UNL1        0.0000
     10 C           0.3048   -1.2271   -3.8972 C.ar    1  UNL1        0.0000
     11 N           0.8100    2.6217   -2.1463 N.ar    1  UNL1        0.0000
     12 C           1.6993    0.9546   -3.2122 C.ar    1  UNL1        0.0000
     13 C           0.6691   -1.3434   -4.0047 C.ar    1  UNL1        0.0000
     14 C           1.0964   -3.8655   -1.4122 C.ar    1  UNL1        0.0000
     15 C           1.4529   -2.6646    0.0317 C.ar    1  UNL1        0.0000
     16 C           2.2606   -1.4506   -0.0499 C.ar    1  UNL1        0.0000
     17 C           3.1056   -0.3096   -0.5670 C.ar    1  UNL1        0.0000
     18 N           2.5998    0.5729    0.4150 N.ar    1  UNL1        0.0000
     19 C          -0.0510   -0.4812    1.4618 C.ar    1  UNL1        0.0000
     20 C          -0.8996   -0.1442    1.9346 C.ar    1  UNL1        0.0000
     21 N          -2.8732   -1.0404    0.4661 N.ar    1  UNL1        0.0000
     22 C          -3.1025   -0.9058   -0.3537 C.ar    1  UNL1        0.0000
     23 C          -1.9180   -1.5671   -0.8431 C.3     1  UNL1        0.0000
     24 C          -0.1239    0.0863   -1.4599 C.3     1  UNL1        0.0000
     25 C           0.0308   -0.1108   -1.0768 C.3     1  UNL1        0.0000
     26 C           0.0614    0.2166   -0.9153 C.3     1  UNL1        0.0000
     27 C          -1.7241    0.7982    0.3840 C.3     1  UNL1        0.0000
     28 C          -0.1726    1.4164    0.6274 C.3     1  UNL1        0.0000
     29 C           0.8021    2.4200    0.6684 C.3     1  UNL1        0.0000
     30 C          -0.6965   -2.4515    0.9298 C.3     1  UNL1        0.0000
     31 C          -2.6477    1.7976   -0.1587 C.ar    1  UNL1        0.0000
     32 N          -2.5666    3.1832    0.1571 N.ar    1  UNL1        0.0000
     33 N          -1.3305    2.9662    0.8741 N.ar    1  UNL1        0.0000
     34 C          -0.0985   -0.4562    1.3612 C.ar    1  UNL1        0.0000
     35 C           1.3849   -0.7994    0.4733 C.ar    1  UNL1        0.0000
     36 H          -3.1852   -0.9454    2.7846 H       1  UNL1        0.0000
     37 H          -1.9874   -3.4073    3.4467 H       1  UNL1        0.0000
     38 H          -1.8992   -0.4553    3.5141 H       1  UNL1        0.0000
     39 H           2.1673   -4.4006    0.4231 H       1  UNL1        0.0000
     40 H          -1.1920   -1.8953    2.7240 H       1  UNL1        0.0000
     41 H           2.8163   -1.8219    2.6800 H       1  UNL1        0.0000
     42 H          -0.9076   -3.5182   -0.4892 H       1  UNL1        0.0000
     43 H          -0.4948    0.6793   -3.1819 H       1  UNL1        0.0000
     44 H           1.9303   -0.4641   -2.0231 H       1  UNL1        0.0000
     45 H          -0.0275   -2.6125   -1.9432 H       1  UNL1        0.0000
     46 H           1.4854    0.9617    1.5877 H       1  UNL1        0.0000
     47 H          -0.3145   -2.5763   -4.1643 H       1  UNL1        0.0000
     48 H           2.2046   -4.3524   -1.4616 H       1  UNL1        0.0000
     49 H           1.1283   -2.5836    3.7903 H       1  UNL1        0.0000
     50 H          -1.1703   -1.3412   -0.3760 H       1  UNL1        0.0000
     51 H          -1.1068   -1.4708   -0.4934 H       1  UNL1        0.0000
     52 H          -1.7957    2.1584   -3.1021 H       1  UNL1        0.0000
     53 H           2.1995   -2.4165   -1.9236 H       1  UNL1        0.0000
     54 H          -0.9328    2.0005   -0.8896 H       1  UNL1        0.0000
     55 H           1.0368   -1.4001   -1.3335 H       1  UNL1        0.0000
     56 H           3.1332    2.0943    0.0780 H       1  UNL1        0.0000
     57 H           2.1993   -1.2949   -3.1987 H       1  UNL1        0.0000
     58 H          -3.7210   -0.5762   -2.3096 H       1  UNL1        0.0000
     59 H           1.5076   -0.4391    2.2644 H       1  UNL1        0.0000
     60 H          -2.6497    2.1682    1.7778 H       1  UNL1        0.0000
     61 H           3.4106    2.2294   -1.9646 H       1  UNL1        0.0000
     62 H           2.7026    3.0796   -0.9917 H       1  UNL1        0.0000
     63 H          -0.1682    0.8791    3.0938 H       1  UNL1        0.0000
     64 H           0.8994   -3.9192    1.2834 H       1  UNL1        0.0000
     65 H          -2.3876   -3.2744    0.9879 H       1  UNL1        0.0000
     66 H          -1.6068    1.4602    2.6296 H       1  UNL1        0.0000
     67 H           2.8927    1.6352    1.7777 H       1  UNL1        0.0000
     68 EU          0.5478    2.5564   -2.1816 Eu      1  UNL1        0.0000
@<TRIPOS>BOND
     1     1     2    2
     2     2     3   am
     3     3     4    1
     4     3     5    1
     5     5     6    1
     6     6     7    1
     7     2     8    1
     8     8     9   ar
     9     9    10   ar
    10     8    11   ar
    11    11    12   ar
    12    12    13   ar
    13    10    13   ar
    14    13    14   ar
    15    14    15   ar
    16    15    16   ar
    17    16    17   ar
    18    12    17   ar
    19    17    18   ar
    20    18    19   ar
    21    19    20    1
    22    20    21   ar
    23    21    22   ar
    24    22    23    1
    25    23    24    1
    26    23    25    1
    27    23    26    1
    28    26    27    1
    29    27    28    1
    30    28    29    1
    31    28    30    1
    32    22    31   ar
    33    28    31    1
    34    31    32   ar
    35    32    33   ar
    36    20    33   ar
    37    19    34   ar
    38    34    35   ar
    39    16    35   ar
    40     4    36    1
    41     4    37    1
    42     4    38    1
    43     5    39    1
    44     5    40    1
    45     6    41    1
    46     6    42    1
    47     7    43    1
    48     7    44    1
    49     7    45    1
    50     9    46    1
    51    10    47    1
    52    14    48    1
    53    15    49    1
    54    24    50    1
    55    24    51    1
    56    24    52    1
    57    25    53    1
    58    25    54    1
    59    25    55    1
    60    26    56    1
    61    26    57    1
    62    27    58    1
    63    27    59    1
    64    29    60    1
    65    29    61    1
    66    29    62    1
    67    30    63    1
    68    30    64    1
    69    30    65    1
    70    34    66    1
    71    35    67    1
    72    68     1    1
    73    68    33    1
    74    68    18    1
    75    68    11    1
@<TRIPOS>MOLECULE
*****
 68 75 0 0 0
SMALL
GASTEIGER

@<TRIPOS>ATOM
      1 O          -2.3106    0.7698   -2.2458 O.2     1  UNL1        0.0000
      2 C          -2.0862    0.3723   -1.5457 C.2     1  UNL1        0.0000
      3 N          -2.2628   -1.7748    1.9952 N.am    1  UNL1        0.0000
      4 C          -3.3264   -1.7832    2.6894 C.3     1  UNL1        0.0000
      5 C          -0.2266   -3.0567    2.7519 C.3     1  UNL1        0.0000
      6 C           1.0449   -2.3028    1.9793 C.3     1  UNL1        0.0000
      7 C          -0.3550   -1.9539   -2.1032 C.3     1  UNL1        0.0000
      8 C           0.8248    2.2538   -1.4004 C.ar    1  UNL1        0.0000
      9 C           1.7755    1.2735   -1.2277 C.ar    1  UNL1        0.0000
     10 C           0.3064   -1.2233   -3.8938 C.ar    1  UNL1        0.0000
     11 N           0.8117    2.6200   -2.1495 N.ar    1  UNL1        0.0000
     12 C           1.7005    0.9499   -3.2129 C.ar    1  UNL1        0.0000
     13 C           0.6722   -1.3403   -4.0015 C.ar    1  UNL1        0.0000
     14 C           1.0993   -3.8610   -1.4162 C.ar    1  UNL1        0.0000
     15 C           1.4567   -2.6665    0.0319 C.ar    1  UNL1        0.0000
     16 C           2.2616   -1.4534   -0.0479 C.ar    1  UNL1        0.0000
     17 C           3.1032   -0.3093   -0.5680 C.ar    1  UNL1        0.0000
     18 N           2.5962    0.5718    0.4127 N.ar    1  UNL1        0.0000
     19 C          -0.0479   -0.4810    1.4597 C.ar    1  UNL1        0.0000
     20 C          -0.9033   -0.1433    1.9356 C.ar    1  UNL1        0.0000
     21 N          -2.8760   -1.0370    0.4662 N.ar    1  UNL1        0.0000
     22 C          -3.1043   -0.9020   -0.3495 C.ar    1  UNL1        0.0000
     23 C          -1.9151   -1.5627   -0.8422 C.3     1  UNL1        0.0000
     24 C          -0.1268    0.0836   -1.4568 C.3     1  UNL1        0.0000
     25 C           0.0351   -0.1121   -1.0817 C.3     1  UNL1        0.0000
     26 C           0.0621    0.2134   -0.9177 C.3     1  UNL1        0.0000
     27 C          -1.7207    0.7993    0.3819 C.3     1  UNL1        0.0000
     28 C          -0.1746    1.4154    0.6234 C.3     1  UNL1        0.0000
     29 C           0.8040    2.4237    0.6660 C.3     1  UNL1        0.0000
     30 C          -0.6970   -2.4478    0.9289 C.3     1  UNL1        0.0000
     31 C          -2.6472    1.7953   -0.1553 C.ar    1  UNL1        0.0000
     32 N          -2.5669    3.1795    0.1588 N.ar    1  UNL1        0.0000
     33 N          -1.3303    2.9647    0.8749 N.ar    1  UNL1        0.0000
     34 C          -0.0955   -0.4581    1.3624 C.ar    1  UNL1        0.0000
     35 C           1.3817   -0.8006    0.4784 C.ar    1  UNL1        0.0000
     36 H          -3.1858   -0.9443    2.7850 H       1  UNL1        0.0000
     37 H          -1.9917   -3.4049    3.4462 H       1  UNL1        0.0000
     38 H          -1.9032   -0.4577    3.5148 H       1  UNL1        0.0000
     39 H           2.1635   -4.3995    0.4287 H       1  UNL1        0.0000
     40 H          -1.1910   -1.8976    2.7262 H       1  UNL1        0.0000
     41 H           2.8137   -1.8228    2.6788 H       1  UNL1        0.0000
     42 H          -0.9034   -3.5182   -0.4863 H       1  UNL1        0.0000
     43 H          -0.4950    0.6745   -3.1823 H       1  UNL1        0.0000
     44 H           1.9279   -0.4629   -2.0225 H       1  UNL1        0.0000
     45 H          -0.0308   -2.6108   -1.9456 H       1  UNL1        0.0000
     46 H           1.4820    0.9641    1.5861 H       1  UNL1        0.0000
     47 H          -0.3148   -2.5746   -4.1639 H       1  UNL1        0.0000
     48 H           2.2039   -4.3527   -1.4623 H       1  UNL1        0.0000
     49 H           1.1329   -2.5834    3.7857 H       1  UNL1        0.0000
     50 H          -1.1704   -1.3386   -0.3799 H       1  UNL1        0.0000
     51 H          -1.1083   -1.4673   -0.4957 H       1  UNL1        0.0000
     52 H          -1.7908    2.1564   -3.0999 H       1  UNL1        0.0000
     53 H           2.1957   -2.4100   -1.9224 H       1  UNL1        0.0000
     54 H          -0.9328    1.9998   -0.8948 H       1  UNL1        0.0000
     55 H           1.0380   -1.4011   -1.3319 H       1  UNL1        0.0000
     56 H           3.1295    2.0942    0.0770 H       1  UNL1        0.0000
     57 H           2.2019   -1.2943   -3.1958 H       1  UNL1        0.0000
     58 H          -3.7171   -0.5734   -2.3036 H       1  UNL1        0.0000
     59 H           1.5071   -0.4364    2.2683 H       1  UNL1        0.0000
     60 H          -2.6459    2.1696    1.7763 H       1  UNL1        0.0000
     61 H           3.4046    2.2303   -1.9582 H       1  UNL1        0.0000
     62 H           2.6982    3.0820   -0.9910 H       1  UNL1        0.0000
     63 H          -0.1647    0.8747    3.0945 H       1  UNL1        0.0000
     64 H           0.8941   -3.9226    1.2831 H       1  UNL1        0.0000
     65 H          -2.3853   -3.2750    0.9867 H       1  UNL1        0.0000
     66 H          -1.6042    1.4567    2.6262 H       1  UNL1        0.0000
     67 H           2.8924    1.6318    1.7772 H       1  UNL1        0.0000
     68 EU          0.5463    2.5545   -2.1849 Eu      1  UNL1        0.0000
@<TRIPOS>BOND
     1     1     2    2
     2     2     3   am
     3     3     4    1
     4     3     5    1
     5     5     6    1
     6     6     7    1
     7     2     8    1
     8     8     9   ar
     9     9    10   ar
    10     8    11   ar
    11    11    12   ar
    12    12    13   ar
    13    10    13   ar
    14    13    14   ar
    15    14    15   ar
    16    15    16   ar
    17    16    17   ar
    18    12    17   ar
    19    17    18   ar
    20    18    19   ar
    21    19    20    1
    22    20    21   ar
    23    21    22   ar
    24    22    23    1
    25    23    24    1
    26    23    25    1
    27    23    26    1
    28    26    27    1
    29    27    28    1
    30    28    29    1
    31    28    30    1
    32    22    31   ar
    33    28    31    1
    34    31    32   ar
    35    32    33   ar
    36    20    33   ar
    37    19    34   ar
    38    34    35   ar
    39    16    35   ar
    40     4    36    1
    41     4    37    1
    42     4    38    1
    43     5    39    1
    44     5    40    1
    45     6    41    1
    46     6    42    1
    47     7    43    1
    48     7    44    1
    49     7    45    1
    50     9    46    1
    51    10    47    1
    52    14    48    1
    53    15    49    1
    54    24    50    1
    55    24    51    1
    56    24    52    1
    57    25    53    1
    58    25    54    1
    59    25    55    1
    60    26    56    1
    61    26    57    1
    62    27    58    1
    63    27    59    1
    64    29    60    1
    65    29    61    1
    66    29    62    1
    67    30    63    1
    68    30    64    1
    69    30    65    1
    70    34    66    1
    71    35    67    1
    72    68     1    1
    73    68    33    1
    74    68    18    1
    75    68    11    1
@<TRIPOS>MOLECULE
*****
 68 75 0 0 0
SMALL
GASTEIGER

@<TRIPOS>ATOM
      1 O          -2.3108    0.7696   -2.2458 O.2     1  UNL1        0.0000
      2 C          -2.0866    0.3726   -1.5458 C.2     1  UNL1        0.0000
      3 N          -2.2616   -1.7740    1.9945 N.am    1  UNL1        0.0000
      4 C          -3.3252   -1.7836    2.6903 C.3     1  UNL1        0.0000
      5 C          -0.2265   -3.0573    2.7516 C.3     1  UNL1        0.0000
      6 C           1.0448   -2.3033    1.9789 C.3     1  UNL1        0.0000
      7 C          -0.3545   -1.9551   -2.1029 C.3     1  UNL1        0.0000
      8 C           0.8250    2.2533   -1.4010 C.ar    1  UNL1        0.0000
      9 C           1.7748    1.2741   -1.2279 C.ar    1  UNL1        0.0000
     10 C           0.3067   -1.2224   -3.8930 C.ar    1  UNL1        0.0000
     11 N           0.8121    2.6196   -2.1502 N.ar    1  UNL1        0.0000
     12 C           1.7008    0.9488   -3.2131 C.ar    1  UNL1        0.0000
     13 C           0.6729   -1.3396   -4.0007 C.ar    1  UNL1        0.0000
     14 C           1.1000   -3.8600   -1.4172 C.ar    1  UNL1        0.0000
     15 C           1.4576   -2.6670    0.0319 C.ar    1  UNL1        0.0000
     16 C           2.2618   -1.4541   -0.0474 C.ar    1  UNL1        0.0000
     17 C           3.1026   -0.3093   -0.5682 C.ar    1  UNL1        0.0000
     18 N           2.5955    0.5716    0.4122 N.ar    1  UNL1        0.0000
     19 C          -0.0453   -0.4807    1.4574 C.ar    1  UNL1        0.0000
     20 C          -0.9043   -0.1432    1.9359 C.ar    1  UNL1        0.0000
     21 N          -2.8766   -1.0362    0.4663 N.ar    1  UNL1        0.0000
     22 C          -3.1047   -0.9011   -0.3485 C.ar    1  UNL1        0.0000
     23 C          -1.9144   -1.5616   -0.8420 C.3     1  UNL1        0.0000
     24 C          -0.1274    0.0830   -1.4560 C.3     1  UNL1        0.0000
     25 C           0.0360   -0.1123   -1.0828 C.3     1  UNL1        0.0000
     26 C           0.0623    0.2126   -0.9183 C.3     1  UNL1        0.0000
     27 C          -1.7199    0.7995    0.3815 C.3     1  UNL1        0.0000
     28 C          -0.1750    1.4152    0.6225 C.3     1  UNL1        0.0000
     29 C           0.8044    2.4246    0.6654 C.3     1  UNL1        0.0000
     30 C          -0.6971   -2.4469    0.9287 C.3     1  UNL1        0.0000
     31 C          -2.6471    1.7948   -0.1545 C.ar    1  UNL1        0.0000
     32 N          -2.5669    3.1787    0.1592 N.ar    1  UNL1        0.0000
     33 N          -1.3302    2.9644    0.8751 N.ar    1  UNL1        0.0000
     34 C          -0.0913   -0.4588    1.3624 C.ar    1  UNL1        0.0000
     35 C           1.3809   -0.8008    0.4796 C.ar    1  UNL1        0.0000
     36 H          -3.1860   -0.9441    2.7851 H       1  UNL1        0.0000
     37 H          -1.9927   -3.4043    3.4461 H       1  UNL1        0.0000
     38 H          -1.9042   -0.4582    3.5150 H       1  UNL1        0.0000
     39 H           2.1626   -4.3993    0.4301 H       1  UNL1        0.0000
     40 H          -1.1908   -1.8982    2.7267 H       1  UNL1        0.0000
     41 H           2.8130   -1.8231    2.6785 H       1  UNL1        0.0000
     42 H          -0.9024   -3.5183   -0.4857 H       1  UNL1        0.0000
     43 H          -0.4951    0.6733   -3.1823 H       1  UNL1        0.0000
     44 H           1.9273   -0.4626   -2.0224 H       1  UNL1        0.0000
     45 H          -0.0315   -2.6104   -1.9462 H       1  UNL1        0.0000
     46 H           1.4813    0.9647    1.5858 H       1  UNL1        0.0000
     47 H          -0.3149   -2.5741   -4.1638 H       1  UNL1        0.0000
     48 H           2.2038   -4.3527   -1.4625 H       1  UNL1        0.0000
     49 H           1.1340   -2.5833    3.7846 H       1  UNL1        0.0000
     50 H          -1.1704   -1.3379   -0.3808 H       1  UNL1        0.0000
     51 H          -1.1087   -1.4665   -0.4962 H       1  UNL1        0.0000
     52 H          -1.7896    2.1559   -3.0994 H       1  UNL1        0.0000
     53 H           2.1948   -2.4085   -1.9221 H       1  UNL1        0.0000
     54 H          -0.9328    1.9997   -0.8960 H       1  UNL1        0.0000
     55 H           1.0383   -1.4014   -1.3315 H       1  UNL1        0.0000
     56 H           3.1286    2.0942    0.0767 H       1  UNL1        0.0000
     57 H           2.2026   -1.2942   -3.1951 H       1  UNL1        0.0000
     58 H          -3.7162   -0.5727   -2.3022 H       1  UNL1        0.0000
     59 H           1.5070   -0.4357    2.2692 H       1  UNL1        0.0000
     60 H          -2.6449    2.1699    1.7760 H       1  UNL1        0.0000
     61 H           3.4031    2.2305   -1.9567 H       1  UNL1        0.0000
     62 H           2.6972    3.0825   -0.9908 H       1  UNL1        0.0000
     63 H          -0.1639    0.8736    3.0947 H       1  UNL1        0.0000
     64 H           0.8928   -3.9234    1.2831 H       1  UNL1        0.0000
     65 H          -2.3847   -3.2751    0.9864 H       1  UNL1        0.0000
     66 H          -1.6036    1.4559    2.6256 H       1  UNL1        0.0000
     67 H           2.8923    1.6309    1.7771 H       1  UNL1        0.0000
     68 EU          0.5459    2.5540   -2.1856 Eu      1  UNL1        0.0000
@<TRIPOS>BOND
     1     1     2    2
     2     2     3   am
     3     3     4    1
     4     3     5    1
     5     5     6    1
     6     6     7    1
     7     2     8    1
     8     8     9   ar
     9     9    10   ar
    10     8    11   ar
    11    11    12   ar
    12    12    13   ar
    13    10    13   ar
    14    13    14   ar
    15    14    15   ar
    16    15    16   ar
    17    16    17   ar
    18    12    17   ar
    19    17    18   ar
    20    18    19   ar
    21    19    20    1
    22    20    21   ar
    23    21    22   ar
    24    22    23    1
    25    23    24    1
    26    23    25    1
    27    23    26    1
    28    26    27    1
    29    27    28    1
    30    28    29    1
    31    28    30    1
    32    22    31   ar
    33    28    31    1
    34    31    32   ar
    35    32    33   ar
    36    20    33   ar
    37    19    34   ar
    38    34    35   ar
    39    16    35   ar
    40     4    36    1
    41     4    37    1
    42     4    38    1
    43     5    39    1
    44     5    40    1
    45     6    41    1
    46     6    42    1
    47     7    43    1
    48     7    44    1
    49     7    45    1
    50     9    46    1
    51    10    47    1
    52    14    48    1
    53    15    49    1
    54    24    50    1
    55    24    51    1
    56    24    52    1
    57    25    53    1
    58    25    54    1
    59    25    55    1
    60    26    56    1
    61    26    57    1
    62    27    58    1
    63    27    59    1
    64    29    60    1
    65    29    61    1
    66    29    62    1
    67    30    63    1
    68    30    64    1
    69    30    65    1
    70    34    66    1
    71    35    67    1
    72    68     1    1
    73    68    33    1
    74    68    18    1
    75    68    11    1
@<TRIPOS>MOLECULE
*****
 68 75 0 0 0
SMALL
GASTEIGER

@<TRIPOS>ATOM
      1 O          -2.3111    0.7695   -2.2458 O.2     1  UNL1        0.0000
      2 C          -2.0871    0.3728   -1.5460 C.2     1  UNL1        0.0000
      3 N          -2.2602   -1.7731    1.9938 N.am    1  UNL1        0.0000
      4 C          -3.3239   -1.7840    2.6914 C.3     1  UNL1        0.0000
      5 C          -0.2264   -3.0580    2.7513 C.3     1  UNL1        0.0000
      6 C           1.0446   -2.3040    1.9785 C.3     1  UNL1        0.0000
      7 C          -0.3538   -1.9565   -2.1025 C.3     1  UNL1        0.0000
      8 C           0.8253    2.2529   -1.4016 C.ar    1  UNL1        0.0000
      9 C           1.7740    1.2747   -1.2281 C.ar    1  UNL1        0.0000
     10 C           0.3072   -1.2214   -3.8921 C.ar    1  UNL1        0.0000
     11 N           0.8126    2.6191   -2.1511 N.ar    1  UNL1        0.0000
     12 C           1.7011    0.9475   -3.2133 C.ar    1  UNL1        0.0000
     13 C           0.6737   -1.3387   -3.9998 C.ar    1  UNL1        0.0000
     14 C           1.1008   -3.8587   -1.4183 C.ar    1  UNL1        0.0000
     15 C           1.4586   -2.6675    0.0320 C.ar    1  UNL1        0.0000
     16 C           2.2621   -1.4549   -0.0469 C.ar    1  UNL1        0.0000
     17 C           3.1019   -0.3092   -0.5685 C.ar    1  UNL1        0.0000
     18 N           2.5947    0.5713    0.4116 N.ar    1  UNL1        0.0000
     19 C          -0.0446   -0.4808    1.4568 C.ar    1  UNL1        0.0000
     20 C          -0.9054   -0.1429    1.9360 C.ar    1  UNL1        0.0000
     21 N          -2.8774   -1.0353    0.4664 N.ar    1  UNL1        0.0000
     22 C          -3.1052   -0.9001   -0.3474 C.ar    1  UNL1        0.0000
     23 C          -1.9137   -1.5604   -0.8418 C.3     1  UNL1        0.0000
     24 C          -0.1282    0.0823   -1.4552 C.3     1  UNL1        0.0000
     25 C           0.0372   -0.1127   -1.0842 C.3     1  UNL1        0.0000
     26 C           0.0625    0.2117   -0.9189 C.3     1  UNL1        0.0000
     27 C          -1.7190    0.7998    0.3809 C.3     1  UNL1        0.0000
     28 C          -0.1756    1.4149    0.6214 C.3     1  UNL1        0.0000
     29 C           0.8049    2.4256    0.6648 C.3     1  UNL1        0.0000
     30 C          -0.6972   -2.4459    0.9284 C.3     1  UNL1        0.0000
     31 C          -2.6469    1.7942   -0.1536 C.ar    1  UNL1        0.0000
     32 N          -2.5670    3.1777    0.1597 N.ar    1  UNL1        0.0000
     33 N          -1.3302    2.9640    0.8752 N.ar    1  UNL1        0.0000
     34 C          -0.0898   -0.4589    1.3624 C.ar    1  UNL1        0.0000
     35 C           1.3800   -0.8011    0.4809 C.ar    1  UNL1        0.0000
     36 H          -3.1861   -0.9438    2.7852 H       1  UNL1        0.0000
     37 H          -1.9939   -3.4037    3.4460 H       1  UNL1        0.0000
     38 H          -1.9052   -0.4588    3.5152 H       1  UNL1        0.0000
     39 H           2.1615   -4.3990    0.4316 H       1  UNL1        0.0000
     40 H          -1.1905   -1.8988    2.7273 H       1  UNL1        0.0000
     41 H           2.8123   -1.8233    2.6782 H       1  UNL1        0.0000
     42 H          -0.9012   -3.5183   -0.4849 H       1  UNL1        0.0000
     43 H          -0.4952    0.6719   -3.1824 H       1  UNL1        0.0000
     44 H           1.9266   -0.4623   -2.0222 H       1  UNL1        0.0000
     45 H          -0.0324   -2.6099   -1.9468 H       1  UNL1        0.0000
     46 H           1.4804    0.9653    1.5853 H       1  UNL1        0.0000
     47 H          -0.3150   -2.5736   -4.1637 H       1  UNL1        0.0000
     48 H           2.2036   -4.3528   -1.4627 H       1  UNL1        0.0000
     49 H           1.1352   -2.5832    3.7833 H       1  UNL1        0.0000
     50 H          -1.1704   -1.3372   -0.3818 H       1  UNL1        0.0000
     51 H          -1.1091   -1.4656   -0.4968 H       1  UNL1        0.0000
     52 H          -1.7883    2.1553   -3.0988 H       1  UNL1        0.0000
     53 H           2.1938   -2.4067   -1.9217 H       1  UNL1        0.0000
     54 H          -0.9328    1.9995   -0.8974 H       1  UNL1        0.0000
     55 H           1.0386   -1.4016   -1.3310 H       1  UNL1        0.0000
     56 H           3.1276    2.0941    0.0764 H       1  UNL1        0.0000
     57 H           2.2033   -1.2940   -3.1943 H       1  UNL1        0.0000
     58 H          -3.7152   -0.5719   -2.3006 H       1  UNL1        0.0000
     59 H           1.5068   -0.4350    2.2703 H       1  UNL1        0.0000
     60 H          -2.6439    2.1703    1.7756 H       1  UNL1        0.0000
     61 H           3.4015    2.2307   -1.9549 H       1  UNL1        0.0000
     62 H           2.6960    3.0831   -0.9906 H       1  UNL1        0.0000
     63 H          -0.1629    0.8724    3.0949 H       1  UNL1        0.0000
     64 H           0.8914   -3.9243    1.2830 H       1  UNL1        0.0000
     65 H          -2.3841   -3.2753    0.9860 H       1  UNL1        0.0000
     66 H          -1.6028    1.4551    2.6248 H       1  UNL1        0.0000
     67 H           2.8922    1.6300    1.7770 H       1  UNL1        0.0000
     68 EU          0.5455    2.5535   -2.1865 Eu      1  UNL1        0.0000
@<TRIPOS>BOND
     1     1     2    2
     2     2     3   am
     3     3     4    1
     4     3     5    1
     5     5     6    1
     6     6     7    1
     7     2     8    1
     8     8     9   ar
     9     9    10   ar
    10     8    11   ar
    11    11    12   ar
    12    12    13   ar
    13    10    13   ar
    14    13    14   ar
    15    14    15   ar
    16    15    16   ar
    17    16    17   ar
    18    12    17   ar
    19    17    18   ar
    20    18    19   ar
    21    19    20    1
    22    20    21   ar
    23    21    22   ar
    24    22    23    1
    25    23    24    1
    26    23    25    1
    27    23    26    1
    28    26    27    1
    29    27    28    1
    30    28    29    1
    31    28    30    1
    32    22    31   ar
    33    28    31    1
    34    31    32   ar
    35    32    33   ar
    36    20    33   ar
    37    19    34   ar
    38    34    35   ar
    39    16    35   ar
    40     4    36    1
    41     4    37    1
    42     4    38    1
    43     5    39    1
    44     5    40    1
    45     6    41    1
    46     6    42    1
    47     7    43    1
    48     7    44    1
    49     7    45    1
    50     9    46    1
    51    10    47    1
    52    14    48    1
    53    15    49    1
    54    24    50    1
    55    24    51    1
    56    24    52    1
    57    25    53    1
    58    25    54    1
    59    25    55    1
    60    26    56    1
    61    26    57    1
    62    27    58    1
    63    27    59    1
    64    29    60    1
    65    29    61    1
    66    29    62    1
    67    30    63    1
    68    30    64    1
    69    30    65    1
    70    34    66    1
    71    35    67    1
    72    68     1    1
    73    68    33    1
    74    68    18    1
    75    68    11    1
@<TRIPOS>MOLECULE
*****
 68 75 0 0 0
SMALL
GASTEIGER

@<TRIPOS>ATOM
      1 O          -2.3115    0.7693   -2.2459 O.2     1  UNL1        0.0000
      2 C          -2.0878    0.3733   -1.5463 C.2     1  UNL1        0.0000
      3 N          -2.2580   -1.7717    1.9927 N.am    1  UNL1        0.0000
      4 C          -3.3217   -1.7847    2.6930 C.3     1  UNL1        0.0000
      5 C          -0.2263   -3.0591    2.7507 C.3     1  UNL1        0.0000
      6 C           1.0444   -2.3050    1.9778 C.3     1  UNL1        0.0000
      7 C          -0.3527   -1.9587   -2.1019 C.3     1  UNL1        0.0000
      8 C           0.8259    2.2521   -1.4026 C.ar    1  UNL1        0.0000
      9 C           1.7727    1.2758   -1.2286 C.ar    1  UNL1        0.0000
     10 C           0.3078   -1.2197   -3.8906 C.ar    1  UNL1        0.0000
     11 N           0.8133    2.6183   -2.1525 N.ar    1  UNL1        0.0000
     12 C           1.7017    0.9455   -3.2136 C.ar    1  UNL1        0.0000
     13 C           0.6751   -1.3374   -3.9984 C.ar    1  UNL1        0.0000
     14 C           1.1021   -3.8568   -1.4201 C.ar    1  UNL1        0.0000
     15 C           1.4603   -2.6683    0.0321 C.ar    1  UNL1        0.0000
     16 C           2.2625   -1.4561   -0.0460 C.ar    1  UNL1        0.0000
     17 C           3.1009   -0.3091   -0.5690 C.ar    1  UNL1        0.0000
     18 N           2.5933    0.5709    0.4107 N.ar    1  UNL1        0.0000
     19 C          -0.0442   -0.4785    1.4562 C.ar    1  UNL1        0.0000
     20 C          -0.9071   -0.1425    1.9360 C.ar    1  UNL1        0.0000
     21 N          -2.8786   -1.0338    0.4665 N.ar    1  UNL1        0.0000
     22 C          -3.1059   -0.8984   -0.3456 C.ar    1  UNL1        0.0000
     23 C          -1.9124   -1.5585   -0.8414 C.3     1  UNL1        0.0000
     24 C          -0.1293    0.0811   -1.4538 C.3     1  UNL1        0.0000
     25 C           0.0389   -0.1132   -1.0863 C.3     1  UNL1        0.0000
     26 C           0.0628    0.2104   -0.9200 C.3     1  UNL1        0.0000
     27 C          -1.7174    0.8002    0.3800 C.3     1  UNL1        0.0000
     28 C          -0.1765    1.4143    0.6196 C.3     1  UNL1        0.0000
     29 C           0.8057    2.4272    0.6637 C.3     1  UNL1        0.0000
     30 C          -0.6974   -2.4443    0.9280 C.3     1  UNL1        0.0000
     31 C          -2.6467    1.7932   -0.1521 C.ar    1  UNL1        0.0000
     32 N          -2.5671    3.1761    0.1604 N.ar    1  UNL1        0.0000
     33 N          -1.3301    2.9634    0.8755 N.ar    1  UNL1        0.0000
     34 C          -0.0889   -0.4578    1.3651 C.ar    1  UNL1        0.0000
     35 C           1.3787   -0.8016    0.4832 C.ar    1  UNL1        0.0000
     36 H          -3.1864   -0.9434    2.7853 H       1  UNL1        0.0000
     37 H          -1.9958   -3.4026    3.4458 H       1  UNL1        0.0000
     38 H          -1.9070   -0.4599    3.5156 H       1  UNL1        0.0000
     39 H           2.1599   -4.3986    0.4341 H       1  UNL1        0.0000
     40 H          -1.1901   -1.8999    2.7282 H       1  UNL1        0.0000
     41 H           2.8111   -1.8237    2.6777 H       1  UNL1        0.0000
     42 H          -0.8993   -3.5183   -0.4837 H       1  UNL1        0.0000
     43 H          -0.4953    0.6698   -3.1826 H       1  UNL1        0.0000
     44 H           1.9255   -0.4618   -2.0219 H       1  UNL1        0.0000
     45 H          -0.0338   -2.6092   -1.9479 H       1  UNL1        0.0000
     46 H           1.4789    0.9664    1.5846 H       1  UNL1        0.0000
     47 H          -0.3151   -2.5728   -4.1635 H       1  UNL1        0.0000
     48 H           2.2033   -4.3529   -1.4630 H       1  UNL1        0.0000
     49 H           1.1373   -2.5832    3.7813 H       1  UNL1        0.0000
     50 H          -1.1705   -1.3361   -0.3835 H       1  UNL1        0.0000
     51 H          -1.1098   -1.4641   -0.4978 H       1  UNL1        0.0000
     52 H          -1.7861    2.1544   -3.0978 H       1  UNL1        0.0000
     53 H           2.1921   -2.4039   -1.9212 H       1  UNL1        0.0000
     54 H          -0.9329    1.9992   -0.8997 H       1  UNL1        0.0000
     55 H           1.0391   -1.4021   -1.3303 H       1  UNL1        0.0000
     56 H           3.1259    2.0941    0.0760 H       1  UNL1        0.0000
     57 H           2.2046   -1.2938   -3.1930 H       1  UNL1        0.0000
     58 H          -3.7135   -0.5707   -2.2980 H       1  UNL1        0.0000
     59 H           1.5067   -0.4338    2.2721 H       1  UNL1        0.0000
     60 H          -2.6422    2.1709    1.7750 H       1  UNL1        0.0000
     61 H           3.3988    2.2311   -1.9521 H       1  UNL1        0.0000
     62 H           2.6940    3.0842   -0.9903 H       1  UNL1        0.0000
     63 H          -0.1614    0.8704    3.0952 H       1  UNL1        0.0000
     64 H           0.8890   -3.9257    1.2828 H       1  UNL1        0.0000
     65 H          -2.3830   -3.2756    0.9855 H       1  UNL1        0.0000
     66 H          -1.6017    1.4537    2.6235 H       1  UNL1        0.0000
     67 H           2.8920    1.6284    1.7768 H       1  UNL1        0.0000
     68 EU          0.5448    2.5526   -2.1880 Eu      1  UNL1        0.0000
@<TRIPOS>BOND
     1     1     2    2
     2     2     3   am
     3     3     4    1
     4     3     5    1
     5     5     6    1
     6     6     7    1
     7     2     8    1
     8     8     9   ar
     9     9    10   ar
    10     8    11   ar
    11    11    12   ar
    12    12    13   ar
    13    10    13   ar
    14    13    14   ar
    15    14    15   ar
    16    15    16   ar
    17    16    17   ar
    18    12    17   ar
    19    17    18   ar
    20    18    19   ar
    21    19    20    1
    22    20    21   ar
    23    21    22   ar
    24    22    23    1
    25    23    24    1
    26    23    25    1
    27    23    26    1
    28    26    27    1
    29    27    28    1
    30    28    29    1
    31    28    30    1
    32    22    31   ar
    33    28    31    1
    34    31    32   ar
    35    32    33   ar
    36    20    33   ar
    37    19    34   ar
    38    34    35   ar
    39    16    35   ar
    40     4    36    1
    41     4    37    1
    42     4    38    1
    43     5    39    1
    44     5    40    1
    45     6    41    1
    46     6    42    1
    47     7    43    1
    48     7    44    1
    49     7    45    1
    50     9    46    1
    51    10    47    1
    52    14    48    1
    53    15    49    1
    54    24    50    1
    55    24    51    1
    56    24    52    1
    57    25    53    1
    58    25    54    1
    59    25    55    1
    60    26    56    1
    61    26    57    1
    62    27    58    1
    63    27    59    1
    64    29    60    1
    65    29    61    1
    66    29    62    1
    67    30    63    1
    68    30    64    1
    69    30    65    1
    70    34    66    1
    71    35    67    1
    72    68     1    1
    73    68    33    1
    74    68    18    1
    75    68    11    1
@<TRIPOS>MOLECULE
*****
 68 75 0 0 0
SMALL
GASTEIGER

@<TRIPOS>ATOM
      1 O          -2.3121    0.7690   -2.2460 O.2     1  UNL1        0.0000
      2 C          -2.0887    0.3738   -1.5466 C.2     1  UNL1        0.0000
      3 N          -2.2553   -1.7699    1.9913 N.am    1  UNL1        0.0000
      4 C          -3.3190   -1.7856    2.6951 C.3     1  UNL1        0.0000
      5 C          -0.2262   -3.0605    2.7499 C.3     1  UNL1        0.0000
      6 C           1.0440   -2.3063    1.9769 C.3     1  UNL1        0.0000
      7 C          -0.3514   -1.9615   -2.1012 C.3     1  UNL1        0.0000
      8 C           0.8265    2.2511   -1.4039 C.ar    1  UNL1        0.0000
      9 C           1.7710    1.2772   -1.2291 C.ar    1  UNL1        0.0000
     10 C           0.3087   -1.2177   -3.8887 C.ar    1  UNL1        0.0000
     11 N           0.8142    2.6173   -2.1542 N.ar    1  UNL1        0.0000
     12 C           1.7024    0.9429   -3.2140 C.ar    1  UNL1        0.0000
     13 C           0.6768   -1.3357   -3.9966 C.ar    1  UNL1        0.0000
     14 C           1.1037   -3.8543   -1.4223 C.ar    1  UNL1        0.0000
     15 C           1.4624   -2.6693    0.0322 C.ar    1  UNL1        0.0000
     16 C           2.2631   -1.4576   -0.0449 C.ar    1  UNL1        0.0000
     17 C           3.0995   -0.3090   -0.5695 C.ar    1  UNL1        0.0000
     18 N           2.5915    0.5703    0.4096 N.ar    1  UNL1        0.0000
     19 C          -0.0395   -0.4774    1.4539 C.ar    1  UNL1        0.0000
     20 C          -0.9094   -0.1419    1.9360 C.ar    1  UNL1        0.0000
     21 N          -2.8802   -1.0319    0.4666 N.ar    1  UNL1        0.0000
     22 C          -3.1069   -0.8963   -0.3433 C.ar    1  UNL1        0.0000
     23 C          -1.9107   -1.5562   -0.8408 C.3     1  UNL1        0.0000
     24 C          -0.1308    0.0797   -1.4521 C.3     1  UNL1        0.0000
     25 C           0.0412   -0.1139   -1.0890 C.3     1  UNL1        0.0000
     26 C           0.0632    0.2086   -0.9213 C.3     1  UNL1        0.0000
     27 C          -1.7155    0.8007    0.3788 C.3     1  UNL1        0.0000
     28 C          -0.1776    1.4137    0.6174 C.3     1  UNL1        0.0000
     29 C           0.8067    2.4293    0.6624 C.3     1  UNL1        0.0000
     30 C          -0.6976   -2.4423    0.9275 C.3     1  UNL1        0.0000
     31 C          -2.6464    1.7919   -0.1502 C.ar    1  UNL1        0.0000
     32 N          -2.5672    3.1742    0.1614 N.ar    1  UNL1        0.0000
     33 N          -1.3299    2.9627    0.8759 N.ar    1  UNL1        0.0000
     34 C          -0.0839   -0.4565    1.3662 C.ar    1  UNL1        0.0000
     35 C           1.3769   -0.8022    0.4860 C.ar    1  UNL1        0.0000
     36 H          -3.1867   -0.9428    2.7855 H       1  UNL1        0.0000
     37 H          -1.9982   -3.4013    3.4455 H       1  UNL1        0.0000
     38 H          -1.9092   -0.4612    3.5160 H       1  UNL1        0.0000
     39 H           2.1578   -4.3981    0.4372 H       1  UNL1        0.0000
     40 H          -1.1895   -1.9012    2.7294 H       1  UNL1        0.0000
     41 H           2.8096   -1.8242    2.6771 H       1  UNL1        0.0000
     42 H          -0.8970   -3.5184   -0.4821 H       1  UNL1        0.0000
     43 H          -0.4954    0.6670   -3.1828 H       1  UNL1        0.0000
     44 H           1.9242   -0.4611   -2.0215 H       1  UNL1        0.0000
     45 H          -0.0356   -2.6084   -1.9492 H       1  UNL1        0.0000
     46 H           1.4771    0.9677    1.5837 H       1  UNL1        0.0000
     47 H          -0.3153   -2.5718   -4.1632 H       1  UNL1        0.0000
     48 H           2.2029   -4.3531   -1.4634 H       1  UNL1        0.0000
     49 H           1.1398   -2.5831    3.7787 H       1  UNL1        0.0000
     50 H          -1.1705   -1.3346   -0.3856 H       1  UNL1        0.0000
     51 H          -1.1106   -1.4622   -0.4990 H       1  UNL1        0.0000
     52 H          -1.7833    2.1533   -3.0966 H       1  UNL1        0.0000
     53 H           2.1901   -2.4003   -1.9205 H       1  UNL1        0.0000
     54 H          -0.9329    1.9988   -0.9026 H       1  UNL1        0.0000
     55 H           1.0398   -1.4027   -1.3294 H       1  UNL1        0.0000
     56 H           3.1238    2.0940    0.0754 H       1  UNL1        0.0000
     57 H           2.2061   -1.2935   -3.1914 H       1  UNL1        0.0000
     58 H          -3.7114   -0.5691   -2.2946 H       1  UNL1        0.0000
     59 H           1.5065   -0.4322    2.2743 H       1  UNL1        0.0000
     60 H          -2.6401    2.1716    1.7743 H       1  UNL1        0.0000
     61 H           3.3955    2.2316   -1.9485 H       1  UNL1        0.0000
     62 H           2.6916    3.0855   -0.9899 H       1  UNL1        0.0000
     63 H          -0.1594    0.8680    3.0957 H       1  UNL1        0.0000
     64 H           0.8860   -3.9275    1.2827 H       1  UNL1        0.0000
     65 H          -2.3817   -3.2759    0.9848 H       1  UNL1        0.0000
     66 H          -1.6004    1.4520    2.6217 H       1  UNL1        0.0000
     67 H           2.8918    1.6265    1.7766 H       1  UNL1        0.0000
     68 EU          0.5438    2.5515   -2.1898 Eu      1  UNL1        0.0000
@<TRIPOS>BOND
     1     1     2    2
     2     2     3   am
     3     3     4    1
     4     3     5    1
     5     5     6    1
     6     6     7    1
     7     2     8    1
     8     8     9   ar
     9     9    10   ar
    10     8    11   ar
    11    11    12   ar
    12    12    13   ar
    13    10    13   ar
    14    13    14   ar
    15    14    15   ar
    16    15    16   ar
    17    16    17   ar
    18    12    17   ar
    19    17    18   ar
    20    18    19   ar
    21    19    20    1
    22    20    21   ar
    23    21    22   ar
    24    22    23    1
    25    23    24    1
    26    23    25    1
    27    23    26    1
    28    26    27    1
    29    27    28    1
    30    28    29    1
    31    28    30    1
    32    22    31   ar
    33    28    31    1
    34    31    32   ar
    35    32    33   ar
    36    20    33   ar
    37    19    34   ar
    38    34    35   ar
    39    16    35   ar
    40     4    36    1
    41     4    37    1
    42     4    38    1
    43     5    39    1
    44     5    40    1
    45     6    41    1
    46     6    42    1
    47     7    43    1
    48     7    44    1
    49     7    45    1
    50     9    46    1
    51    10    47    1
    52    14    48    1
    53    15    49    1
    54    24    50    1
    55    24    51    1
    56    24    52    1
    57    25    53    1
    58    25    54    1
    59    25    55    1
    60    26    56    1
    61    26    57    1
    62    27    58    1
    63    27    59    1
    64    29    60    1
    65    29    61    1
    66    29    62    1
    67    30    63    1
    68    30    64    1
    69    30    65    1
    70    34    66    1
    71    35    67    1
    72    68     1    1
    73    68    33    1
    74    68    18    1
    75    68    11    1
@<TRIPOS>MOLECULE
*****
 68 75 0 0 0
SMALL
GASTEIGER

@<TRIPOS>ATOM
      1 O          -2.3122    0.7690   -2.2460 O.2     1  UNL1        0.0000
      2 C          -2.0888    0.3739   -1.5467 C.2     1  UNL1        0.0000
      3 N          -2.2550   -1.7696    1.9911 N.am    1  UNL1        0.0000
      4 C          -3.3187   -1.7857    2.6954 C.3     1  UNL1        0.0000
      5 C          -0.2262   -3.0606    2.7498 C.3     1  UNL1        0.0000
      6 C           1.0440   -2.3065    1.9768 C.3     1  UNL1        0.0000
      7 C          -0.3512   -1.9618   -2.1011 C.3     1  UNL1        0.0000
      8 C           0.8266    2.2510   -1.4041 C.ar    1  UNL1        0.0000
      9 C           1.7708    1.2773   -1.2292 C.ar    1  UNL1        0.0000
     10 C           0.3088   -1.2174   -3.8884 C.ar    1  UNL1        0.0000
     11 N           0.8143    2.6172   -2.1545 N.ar    1  UNL1        0.0000
     12 C           1.7025    0.9426   -3.2140 C.ar    1  UNL1        0.0000
     13 C           0.6770   -1.3354   -3.9964 C.ar    1  UNL1        0.0000
     14 C           1.1039   -3.8540   -1.4226 C.ar    1  UNL1        0.0000
     15 C           1.4627   -2.6694    0.0322 C.ar    1  UNL1        0.0000
     16 C           2.2632   -1.4578   -0.0448 C.ar    1  UNL1        0.0000
     17 C           3.0994   -0.3090   -0.5696 C.ar    1  UNL1        0.0000
     18 N           2.5913    0.5702    0.4095 N.ar    1  UNL1        0.0000
     19 C          -0.0406   -0.4790    1.4534 C.ar    1  UNL1        0.0000
     20 C          -0.9098   -0.1418    1.9360 C.ar    1  UNL1        0.0000
     21 N          -2.8804   -1.0316    0.4667 N.ar    1  UNL1        0.0000
     22 C          -3.1070   -0.8960   -0.3430 C.ar    1  UNL1        0.0000
     23 C          -1.9105   -1.5559   -0.8408 C.3     1  UNL1        0.0000
     24 C          -0.1310    0.0795   -1.4519 C.3     1  UNL1        0.0000
     25 C           0.0415   -0.1140   -1.0893 C.3     1  UNL1        0.0000
     26 C           0.0633    0.2084   -0.9215 C.3     1  UNL1        0.0000
     27 C          -1.7152    0.8008    0.3787 C.3     1  UNL1        0.0000
     28 C          -0.1777    1.4136    0.6171 C.3     1  UNL1        0.0000
     29 C           0.8068    2.4296    0.6622 C.3     1  UNL1        0.0000
     30 C          -0.6976   -2.4421    0.9274 C.3     1  UNL1        0.0000
     31 C          -2.6464    1.7917   -0.1500 C.ar    1  UNL1        0.0000
     32 N          -2.5672    3.1739    0.1615 N.ar    1  UNL1        0.0000
     33 N          -1.3299    2.9626    0.8760 N.ar    1  UNL1        0.0000
     34 C          -0.0820   -0.4564    1.3656 C.ar    1  UNL1        0.0000
     35 C           1.3767   -0.8023    0.4864 C.ar    1  UNL1        0.0000
     36 H          -3.1868   -0.9427    2.7855 H       1  UNL1        0.0000
     37 H          -1.9985   -3.4011    3.4454 H       1  UNL1        0.0000
     38 H          -1.9095   -0.4613    3.5160 H       1  UNL1        0.0000
     39 H           2.1575   -4.3980    0.4376 H       1  UNL1        0.0000
     40 H          -1.1894   -1.9013    2.7296 H       1  UNL1        0.0000
     41 H           2.8094   -1.8243    2.6770 H       1  UNL1        0.0000
     42 H          -0.8967   -3.5184   -0.4819 H       1  UNL1        0.0000
     43 H          -0.4955    0.6667   -3.1828 H       1  UNL1        0.0000
     44 H           1.9240   -0.4610   -2.0215 H       1  UNL1        0.0000
     45 H          -0.0358   -2.6083   -1.9494 H       1  UNL1        0.0000
     46 H           1.4769    0.9679    1.5836 H       1  UNL1        0.0000
     47 H          -0.3153   -2.5717   -4.1632 H       1  UNL1        0.0000
     48 H           2.2029   -4.3531   -1.4634 H       1  UNL1        0.0000
     49 H           1.1402   -2.5830    3.7784 H       1  UNL1        0.0000
     50 H          -1.1705   -1.3344   -0.3859 H       1  UNL1        0.0000
     51 H          -1.1107   -1.4620   -0.4992 H       1  UNL1        0.0000
     52 H          -1.7830    2.1531   -3.0965 H       1  UNL1        0.0000
     53 H           2.1898   -2.3998   -1.9204 H       1  UNL1        0.0000
     54 H          -0.9329    1.9988   -0.9030 H       1  UNL1        0.0000
     55 H           1.0399   -1.4028   -1.3292 H       1  UNL1        0.0000
     56 H           3.1236    2.0940    0.0753 H       1  UNL1        0.0000
     57 H           2.2063   -1.2935   -3.1912 H       1  UNL1        0.0000
     58 H          -3.7111   -0.5689   -2.2942 H       1  UNL1        0.0000
     59 H           1.5064   -0.4320    2.2746 H       1  UNL1        0.0000
     60 H          -2.6398    2.1717    1.7743 H       1  UNL1        0.0000
     61 H           3.3951    2.2317   -1.9481 H       1  UNL1        0.0000
     62 H           2.6913    3.0857   -0.9898 H       1  UNL1        0.0000
     63 H          -0.1592    0.8676    3.0957 H       1  UNL1        0.0000
     64 H           0.8856   -3.9278    1.2826 H       1  UNL1        0.0000
     65 H          -2.3815   -3.2759    0.9847 H       1  UNL1        0.0000
     66 H          -1.6002    1.4517    2.6215 H       1  UNL1        0.0000
     67 H           2.8918    1.6262    1.7766 H       1  UNL1        0.0000
     68 EU          0.5437    2.5513   -2.1900 Eu      1  UNL1        0.0000
@<TRIPOS>BOND
     1     1     2    2
     2     2     3   am
     3     3     4    1
     4     3     5    1
     5     5     6    1
     6     6     7    1
     7     2     8    1
     8     8     9   ar
     9     9    10   ar
    10     8    11   ar
    11    11    12   ar
    12    12    13   ar
    13    10    13   ar
    14    13    14   ar
    15    14    15   ar
    16    15    16   ar
    17    16    17   ar
    18    12    17   ar
    19    17    18   ar
    20    18    19   ar
    21    19    20    1
    22    20    21   ar
    23    21    22   ar
    24    22    23    1
    25    23    24    1
    26    23    25    1
    27    23    26    1
    28    26    27    1
    29    27    28    1
    30    28    29    1
    31    28    30    1
    32    22    31   ar
    33    28    31    1
    34    31    32   ar
    35    32    33   ar
    36    20    33   ar
    37    19    34   ar
    38    34    35   ar
    39    16    35   ar
    40     4    36    1
    41     4    37    1
    42     4    38    1
    43     5    39    1
    44     5    40    1
    45     6    41    1
    46     6    42    1
    47     7    43    1
    48     7    44    1
    49     7    45    1
    50     9    46    1
    51    10    47    1
    52    14    48    1
    53    15    49    1
    54    24    50    1
    55    24    51    1
    56    24    52    1
    57    25    53    1
    58    25    54    1
    59    25    55    1
    60    26    56    1
    61    26    57    1
    62    27    58    1
    63    27    59    1
    64    29    60    1
    65    29    61    1
    66    29    62    1
    67    30    63    1
    68    30    64    1
    69    30    65    1
    70    34    66    1
    71    35    67    1
    72    68     1    1
    73    68    33    1
    74    68    18    1
    75    68    11    1
@<TRIPOS>MOLECULE
*****
 68 75 0 0 0
SMALL
GASTEIGER

@<TRIPOS>ATOM
      1 O          -2.3122    0.7690   -2.2460 O.2     1  UNL1        0.0000
      2 C          -2.0888    0.3739   -1.5467 C.2     1  UNL1        0.0000
      3 N          -2.2550   -1.7696    1.9911 N.am    1  UNL1        0.0000
      4 C          -3.3187   -1.7857    2.6954 C.3     1  UNL1        0.0000
      5 C          -0.2262   -3.0606    2.7498 C.3     1  UNL1        0.0000
      6 C           1.0440   -2.3065    1.9768 C.3     1  UNL1        0.0000
      7 C          -0.3512   -1.9618   -2.1011 C.3     1  UNL1        0.0000
      8 C           0.8266    2.2510   -1.4041 C.ar    1  UNL1        0.0000
      9 C           1.7708    1.2773   -1.2292 C.ar    1  UNL1        0.0000
     10 C           0.3088   -1.2174   -3.8884 C.ar    1  UNL1        0.0000
     11 N           0.8143    2.6172   -2.1545 N.ar    1  UNL1        0.0000
     12 C           1.7025    0.9426   -3.2140 C.ar    1  UNL1        0.0000
     13 C           0.6770   -1.3354   -3.9964 C.ar    1  UNL1        0.0000
     14 C           1.1039   -3.8540   -1.4226 C.ar    1  UNL1        0.0000
     15 C           1.4627   -2.6694    0.0322 C.ar    1  UNL1        0.0000
     16 C           2.2632   -1.4578   -0.0448 C.ar    1  UNL1        0.0000
     17 C           3.0994   -0.3090   -0.5696 C.ar    1  UNL1        0.0000
     18 N           2.5913    0.5702    0.4095 N.ar    1  UNL1        0.0000
     19 C          -0.0406   -0.4790    1.4534 C.ar    1  UNL1        0.0000
     20 C          -0.9098   -0.1418    1.9360 C.ar    1  UNL1        0.0000
     21 N          -2.8804   -1.0316    0.4667 N.ar    1  UNL1        0.0000
     22 C          -3.1070   -0.8960   -0.3430 C.ar    1  UNL1        0.0000
     23 C          -1.9105   -1.5559   -0.8408 C.3     1  UNL1        0.0000
     24 C          -0.1310    0.0795   -1.4519 C.3     1  UNL1        0.0000
     25 C           0.0415   -0.1140   -1.0893 C.3     1  UNL1        0.0000
     26 C           0.0633    0.2084   -0.9215 C.3     1  UNL1        0.0000
     27 C          -1.7152    0.8008    0.3787 C.3     1  UNL1        0.0000
     28 C          -0.1777    1.4136    0.6171 C.3     1  UNL1        0.0000
     29 C           0.8068    2.4296    0.6622 C.3     1  UNL1        0.0000
     30 C          -0.6976   -2.4421    0.9274 C.3     1  UNL1        0.0000
     31 C          -2.6464    1.7917   -0.1500 C.ar    1  UNL1        0.0000
     32 N          -2.5672    3.1739    0.1615 N.ar    1  UNL1        0.0000
     33 N          -1.3299    2.9626    0.8760 N.ar    1  UNL1        0.0000
     34 C          -0.0820   -0.4564    1.3656 C.ar    1  UNL1        0.0000
     35 C           1.3767   -0.8023    0.4864 C.ar    1  UNL1        0.0000
     36 H          -3.1868   -0.9427    2.7855 H       1  UNL1        0.0000
     37 H          -1.9985   -3.4011    3.4454 H       1  UNL1        0.0000
     38 H          -1.9095   -0.4613    3.5160 H       1  UNL1        0.0000
     39 H           2.1575   -4.3980    0.4376 H       1  UNL1        0.0000
     40 H          -1.1894   -1.9013    2.7296 H       1  UNL1        0.0000
     41 H           2.8094   -1.8243    2.6770 H       1  UNL1        0.0000
     42 H          -0.8967   -3.5184   -0.4819 H       1  UNL1        0.0000
     43 H          -0.4955    0.6667   -3.1828 H       1  UNL1        0.0000
     44 H           1.9240   -0.4610   -2.0215 H       1  UNL1        0.0000
     45 H          -0.0358   -2.6083   -1.9494 H       1  UNL1        0.0000
     46 H           1.4769    0.9679    1.5836 H       1  UNL1        0.0000
     47 H          -0.3153   -2.5717   -4.1632 H       1  UNL1        0.0000
     48 H           2.2029   -4.3531   -1.4634 H       1  UNL1        0.0000
     49 H           1.1402   -2.5830    3.7784 H       1  UNL1        0.0000
     50 H          -1.1705   -1.3344   -0.3859 H       1  UNL1        0.0000
     51 H          -1.1107   -1.4620   -0.4992 H       1  UNL1        0.0000
     52 H          -1.7830    2.1531   -3.0965 H       1  UNL1        0.0000
     53 H           2.1898   -2.3998   -1.9204 H       1  UNL1        0.0000
     54 H          -0.9329    1.9988   -0.9030 H       1  UNL1        0.0000
     55 H           1.0399   -1.4028   -1.3292 H       1  UNL1        0.0000
     56 H           3.1236    2.0940    0.0753 H       1  UNL1        0.0000
     57 H           2.2063   -1.2935   -3.1912 H       1  UNL1        0.0000
     58 H          -3.7111   -0.5689   -2.2942 H       1  UNL1        0.0000
     59 H           1.5064   -0.4320    2.2746 H       1  UNL1        0.0000
     60 H          -2.6398    2.1717    1.7743 H       1  UNL1        0.0000
     61 H           3.3951    2.2317   -1.9481 H       1  UNL1        0.0000
     62 H           2.6913    3.0857   -0.9898 H       1  UNL1        0.0000
     63 H          -0.1592    0.8676    3.0957 H       1  UNL1        0.0000
     64 H           0.8856   -3.9278    1.2826 H       1  UNL1        0.0000
     65 H          -2.3815   -3.2759    0.9847 H       1  UNL1        0.0000
     66 H          -1.6002    1.4517    2.6215 H       1  UNL1        0.0000
     67 H           2.8918    1.6262    1.7766 H       1  UNL1        0.0000
     68 EU          0.5437    2.5513   -2.1900 Eu      1  UNL1        0.0000
@<TRIPOS>BOND
     1     1     2    2
     2     2     3   am
     3     3     4    1
     4     3     5    1
     5     5     6    1
     6     6     7    1
     7     2     8    1
     8     8     9   ar
     9     9    10   ar
    10     8    11   ar
    11    11    12   ar
    12    12    13   ar
    13    10    13   ar
    14    13    14   ar
    15    14    15   ar
    16    15    16   ar
    17    16    17   ar
    18    12    17   ar
    19    17    18   ar
    20    18    19   ar
    21    19    20    1
    22    20    21   ar
    23    21    22   ar
    24    22    23    1
    25    23    24    1
    26    23    25    1
    27    23    26    1
    28    26    27    1
    29    27    28    1
    30    28    29    1
    31    28    30    1
    32    22    31   ar
    33    28    31    1
    34    31    32   ar
    35    32    33   ar
    36    20    33   ar
    37    19    34   ar
    38    34    35   ar
    39    16    35   ar
    40     4    36    1
    41     4    37    1
    42     4    38    1
    43     5    39    1
    44     5    40    1
    45     6    41    1
    46     6    42    1
    47     7    43    1
    48     7    44    1
    49     7    45    1
    50     9    46    1
    51    10    47    1
    52    14    48    1
    53    15    49    1
    54    24    50    1
    55    24    51    1
    56    24    52    1
    57    25    53    1
    58    25    54    1
    59    25    55    1
    60    26    56    1
    61    26    57    1
    62    27    58    1
    63    27    59    1
    64    29    60    1
    65    29    61    1
    66    29    62    1
    67    30    63    1
    68    30    64    1
    69    30    65    1
    70    34    66    1
    71    35    67    1
    72    68     1    1
    73    68    33    1
    74    68    18    1
    75    68    11    1
@<TRIPOS>MOLECULE
*****
 68 75 0 0 0
SMALL
GASTEIGER

@<TRIPOS>ATOM
      1 O          -2.3122    0.7690   -2.2460 O.2     1  UNL1        0.0000
      2 C          -2.0888    0.3739   -1.5467 C.2     1  UNL1        0.0000
      3 N          -2.2550   -1.7696    1.9911 N.am    1  UNL1        0.0000
      4 C          -3.3187   -1.7857    2.6954 C.3     1  UNL1        0.0000
      5 C          -0.2262   -3.0606    2.7498 C.3     1  UNL1        0.0000
      6 C           1.0440   -2.3065    1.9768 C.3     1  UNL1        0.0000
      7 C          -0.3512   -1.9618   -2.1011 C.3     1  UNL1        0.0000
      8 C           0.8266    2.2510   -1.4041 C.ar    1  UNL1        0.0000
      9 C           1.7708    1.2773   -1.2292 C.ar    1  UNL1        0.0000
     10 C           0.3088   -1.2174   -3.8884 C.ar    1  UNL1        0.0000
     11 N           0.8143    2.6172   -2.1545 N.ar    1  UNL1        0.0000
     12 C           1.7025    0.9426   -3.2140 C.ar    1  UNL1        0.0000
     13 C           0.6770   -1.3354   -3.9964 C.ar    1  UNL1        0.0000
     14 C           1.1039   -3.8540   -1.4226 C.ar    1  UNL1        0.0000
     15 C           1.4627   -2.6694    0.0322 C.ar    1  UNL1        0.0000
     16 C           2.2632   -1.4578   -0.0448 C.ar    1  UNL1        0.0000
     17 C           3.0994   -0.3090   -0.5696 C.ar    1  UNL1        0.0000
     18 N           2.5913    0.5702    0.4095 N.ar    1  UNL1        0.0000
     19 C          -0.0406   -0.4790    1.4534 C.ar    1  UNL1        0.0000
     20 C          -0.9098   -0.1418    1.9360 C.ar    1  UNL1        0.0000
     21 N          -2.8804   -1.0316    0.4667 N.ar    1  UNL1        0.0000
     22 C          -3.1070   -0.8960   -0.3430 C.ar    1  UNL1        0.0000
     23 C          -1.9105   -1.5559   -0.8408 C.3     1  UNL1        0.0000
     24 C          -0.1310    0.0795   -1.4519 C.3     1  UNL1        0.0000
     25 C           0.0415   -0.1140   -1.0893 C.3     1  UNL1        0.0000
     26 C           0.0633    0.2084   -0.9215 C.3     1  UNL1        0.0000
     27 C          -1.7152    0.8008    0.3787 C.3     1  UNL1        0.0000
     28 C          -0.1777    1.4136    0.6171 C.3     1  UNL1        0.0000
     29 C           0.8068    2.4296    0.6622 C.3     1  UNL1        0.0000
     30 C          -0.6976   -2.4421    0.9274 C.3     1  UNL1        0.0000
     31 C          -2.6464    1.7917   -0.1500 C.ar    1  UNL1        0.0000
     32 N          -2.5672    3.1739    0.1615 N.ar    1  UNL1        0.0000
     33 N          -1.3299    2.9626    0.8760 N.ar    1  UNL1        0.0000
     34 C          -0.0820   -0.4564    1.3656 C.ar    1  UNL1        0.0000
     35 C           1.3767   -0.8023    0.4864 C.ar    1  UNL1        0.0000
     36 H          -3.1868   -0.9427    2.7855 H       1  UNL1        0.0000
     37 H          -1.9985   -3.4011    3.4454 H       1  UNL1        0.0000
     38 H          -1.9095   -0.4613    3.5160 H       1  UNL1        0.0000
     39 H           2.1575   -4.3980    0.4376 H       1  UNL1        0.0000
     40 H          -1.1894   -1.9013    2.7296 H       1  UNL1        0.0000
     41 H           2.8094   -1.8243    2.6770 H       1  UNL1        0.0000
     42 H          -0.8967   -3.5184   -0.4819 H       1  UNL1        0.0000
     43 H          -0.4955    0.6667   -3.1828 H       1  UNL1        0.0000
     44 H           1.9240   -0.4610   -2.0215 H       1  UNL1        0.0000
     45 H          -0.0358   -2.6083   -1.9494 H       1  UNL1        0.0000
     46 H           1.4769    0.9679    1.5836 H       1  UNL1        0.0000
     47 H          -0.3153   -2.5717   -4.1632 H       1  UNL1        0.0000
     48 H           2.2029   -4.3531   -1.4634 H       1  UNL1        0.0000
     49 H           1.1402   -2.5830    3.7784 H       1  UNL1        0.0000
     50 H          -1.1705   -1.3344   -0.3859 H       1  UNL1        0.0000
     51 H          -1.1107   -1.4620   -0.4992 H       1  UNL1        0.0000
     52 H          -1.7830    2.1531   -3.0965 H       1  UNL1        0.0000
     53 H           2.1898   -2.3998   -1.9204 H       1  UNL1        0.0000
     54 H          -0.9329    1.9988   -0.9030 H       1  UNL1        0.0000
     55 H           1.0399   -1.4028   -1.3292 H       1  UNL1        0.0000
     56 H           3.1236    2.0940    0.0753 H       1  UNL1        0.0000
     57 H           2.2063   -1.2935   -3.1912 H       1  UNL1        0.0000
     58 H          -3.7111   -0.5689   -2.2942 H       1  UNL1        0.0000
     59 H           1.5064   -0.4320    2.2746 H       1  UNL1        0.0000
     60 H          -2.6398    2.1717    1.7743 H       1  UNL1        0.0000
     61 H           3.3951    2.2317   -1.9481 H       1  UNL1        0.0000
     62 H           2.6913    3.0857   -0.9898 H       1  UNL1        0.0000
     63 H          -0.1592    0.8676    3.0957 H       1  UNL1        0.0000
     64 H           0.8856   -3.9278    1.2826 H       1  UNL1        0.0000
     65 H          -2.3815   -3.2759    0.9847 H       1  UNL1        0.0000
     66 H          -1.6002    1.4517    2.6215 H       1  UNL1        0.0000
     67 H           2.8918    1.6262    1.7766 H       1  UNL1        0.0000
     68 EU          0.5437    2.5513   -2.1900 Eu      1  UNL1        0.0000
@<TRIPOS>BOND
     1     1     2    2
     2     2     3   am
     3     3     4    1
     4     3     5    1
     5     5     6    1
     6     6     7    1
     7     2     8    1
     8     8     9   ar
     9     9    10   ar
    10     8    11   ar
    11    11    12   ar
    12    12    13   ar
    13    10    13   ar
    14    13    14   ar
    15    14    15   ar
    16    15    16   ar
    17    16    17   ar
    18    12    17   ar
    19    17    18   ar
    20    18    19   ar
    21    19    20    1
    22    20    21   ar
    23    21    22   ar
    24    22    23    1
    25    23    24    1
    26    23    25    1
    27    23    26    1
    28    26    27    1
    29    27    28    1
    30    28    29    1
    31    28    30    1
    32    22    31   ar
    33    28    31    1
    34    31    32   ar
    35    32    33   ar
    36    20    33   ar
    37    19    34   ar
    38    34    35   ar
    39    16    35   ar
    40     4    36    1
    41     4    37    1
    42     4    38    1
    43     5    39    1
    44     5    40    1
    45     6    41    1
    46     6    42    1
    47     7    43    1
    48     7    44    1
    49     7    45    1
    50     9    46    1
    51    10    47    1
    52    14    48    1
    53    15    49    1
    54    24    50    1
    55    24    51    1
    56    24    52    1
    57    25    53    1
    58    25    54    1
    59    25    55    1
    60    26    56    1
    61    26    57    1
    62    27    58    1
    63    27    59    1
    64    29    60    1
    65    29    61    1
    66    29    62    1
    67    30    63    1
    68    30    64    1
    69    30    65    1
    70    34    66    1
    71    35    67    1
    72    68     1    1
    73    68    33    1
    74    68    18    1
    75    68    11    1
@<TRIPOS>MOLECULE
*****
 68 75 0 0 0
SMALL
GASTEIGER

@<TRIPOS>ATOM
      1 O          -2.3122    0.7690   -2.2460 O.2     1  UNL1        0.0000
      2 C          -2.0888    0.3739   -1.5467 C.2     1  UNL1        0.0000
      3 N          -2.2550   -1.7696    1.9911 N.am    1  UNL1        0.0000
      4 C          -3.3187   -1.7857    2.6954 C.3     1  UNL1        0.0000
      5 C          -0.2262   -3.0606    2.7498 C.3     1  UNL1        0.0000
      6 C           1.0440   -2.3065    1.9768 C.3     1  UNL1        0.0000
      7 C          -0.3512   -1.9618   -2.1011 C.3     1  UNL1        0.0000
      8 C           0.8266    2.2510   -1.4041 C.ar    1  UNL1        0.0000
      9 C           1.7708    1.2773   -1.2292 C.ar    1  UNL1        0.0000
     10 C           0.3088   -1.2174   -3.8884 C.ar    1  UNL1        0.0000
     11 N           0.8143    2.6172   -2.1545 N.ar    1  UNL1        0.0000
     12 C           1.7025    0.9426   -3.2140 C.ar    1  UNL1        0.0000
     13 C           0.6770   -1.3354   -3.9964 C.ar    1  UNL1        0.0000
     14 C           1.1039   -3.8540   -1.4226 C.ar    1  UNL1        0.0000
     15 C           1.4627   -2.6694    0.0322 C.ar    1  UNL1        0.0000
     16 C           2.2632   -1.4578   -0.0448 C.ar    1  UNL1        0.0000
     17 C           3.0994   -0.3090   -0.5696 C.ar    1  UNL1        0.0000
     18 N           2.5913    0.5702    0.4095 N.ar    1  UNL1        0.0000
     19 C          -0.0406   -0.4790    1.4534 C.ar    1  UNL1        0.0000
     20 C          -0.9098   -0.1418    1.9360 C.ar    1  UNL1        0.0000
     21 N          -2.8804   -1.0316    0.4667 N.ar    1  UNL1        0.0000
     22 C          -3.1070   -0.8960   -0.3430 C.ar    1  UNL1        0.0000
     23 C          -1.9105   -1.5559   -0.8408 C.3     1  UNL1        0.0000
     24 C          -0.1310    0.0795   -1.4519 C.3     1  UNL1        0.0000
     25 C           0.0415   -0.1140   -1.0893 C.3     1  UNL1        0.0000
     26 C           0.0633    0.2084   -0.9215 C.3     1  UNL1        0.0000
     27 C          -1.7152    0.8008    0.3787 C.3     1  UNL1        0.0000
     28 C          -0.1777    1.4136    0.6171 C.3     1  UNL1        0.0000
     29 C           0.8068    2.4296    0.6622 C.3     1  UNL1        0.0000
     30 C          -0.6976   -2.4421    0.9274 C.3     1  UNL1        0.0000
     31 C          -2.6464    1.7917   -0.1500 C.ar    1  UNL1        0.0000
     32 N          -2.5672    3.1739    0.1615 N.ar    1  UNL1        0.0000
     33 N          -1.3299    2.9626    0.8760 N.ar    1  UNL1        0.0000
     34 C          -0.0820   -0.4564    1.3656 C.ar    1  UNL1        0.0000
     35 C           1.3767   -0.8023    0.4864 C.ar    1  UNL1        0.0000
     36 H          -3.1868   -0.9427    2.7855 H       1  UNL1        0.0000
     37 H          -1.9985   -3.4011    3.4454 H       1  UNL1        0.0000
     38 H          -1.9095   -0.4613    3.5160 H       1  UNL1        0.0000
     39 H           2.1575   -4.3980    0.4376 H       1  UNL1        0.0000
     40 H          -1.1894   -1.9013    2.7296 H       1  UNL1        0.0000
     41 H           2.8094   -1.8243    2.6770 H       1  UNL1        0.0000
     42 H          -0.8967   -3.5184   -0.4819 H       1  UNL1        0.0000
     43 H          -0.4955    0.6667   -3.1828 H       1  UNL1        0.0000
     44 H           1.9240   -0.4610   -2.0215 H       1  UNL1        0.0000
     45 H          -0.0358   -2.6083   -1.9494 H       1  UNL1        0.0000
     46 H           1.4769    0.9679    1.5836 H       1  UNL1        0.0000
     47 H          -0.3153   -2.5717   -4.1632 H       1  UNL1        0.0000
     48 H           2.2029   -4.3531   -1.4634 H       1  UNL1        0.0000
     49 H           1.1402   -2.5830    3.7784 H       1  UNL1        0.0000
     50 H          -1.1705   -1.3344   -0.3859 H       1  UNL1        0.0000
     51 H          -1.1107   -1.4620   -0.4992 H       1  UNL1        0.0000
     52 H          -1.7830    2.1531   -3.0965 H       1  UNL1        0.0000
     53 H           2.1898   -2.3998   -1.9204 H       1  UNL1        0.0000
     54 H          -0.9329    1.9988   -0.9030 H       1  UNL1        0.0000
     55 H           1.0399   -1.4028   -1.3292 H       1  UNL1        0.0000
     56 H           3.1236    2.0940    0.0753 H       1  UNL1        0.0000
     57 H           2.2063   -1.2935   -3.1912 H       1  UNL1        0.0000
     58 H          -3.7111   -0.5689   -2.2942 H       1  UNL1        0.0000
     59 H           1.5064   -0.4320    2.2746 H       1  UNL1        0.0000
     60 H          -2.6398    2.1717    1.7743 H       1  UNL1        0.0000
     61 H           3.3951    2.2317   -1.9481 H       1  UNL1        0.0000
     62 H           2.6913    3.0857   -0.9898 H       1  UNL1        0.0000
     63 H          -0.1592    0.8676    3.0957 H       1  UNL1        0.0000
     64 H           0.8856   -3.9278    1.2826 H       1  UNL1        0.0000
     65 H          -2.3815   -3.2759    0.9847 H       1  UNL1        0.0000
     66 H          -1.6002    1.4517    2.6215 H       1  UNL1        0.0000
     67 H           2.8918    1.6262    1.7766 H       1  UNL1        0.0000
     68 EU          0.5437    2.5513   -2.1900 Eu      1  UNL1        0.0000
@<TRIPOS>BOND
     1     1     2    2
     2     2     3   am
     3     3     4    1
     4     3     5    1
     5     5     6    1
     6     6     7    1
     7     2     8    1
     8     8     9   ar
     9     9    10   ar
    10     8    11   ar
    11    11    12   ar
    12    12    13   ar
    13    10    13   ar
    14    13    14   ar
    15    14    15   ar
    16    15    16   ar
    17    16    17   ar
    18    12    17   ar
    19    17    18   ar
    20    18    19   ar
    21    19    20    1
    22    20    21   ar
    23    21    22   ar
    24    22    23    1
    25    23    24    1
    26    23    25    1
    27    23    26    1
    28    26    27    1
    29    27    28    1
    30    28    29    1
    31    28    30    1
    32    22    31   ar
    33    28    31    1
    34    31    32   ar
    35    32    33   ar
    36    20    33   ar
    37    19    34   ar
    38    34    35   ar
    39    16    35   ar
    40     4    36    1
    41     4    37    1
    42     4    38    1
    43     5    39    1
    44     5    40    1
    45     6    41    1
    46     6    42    1
    47     7    43    1
    48     7    44    1
    49     7    45    1
    50     9    46    1
    51    10    47    1
    52    14    48    1
    53    15    49    1
    54    24    50    1
    55    24    51    1
    56    24    52    1
    57    25    53    1
    58    25    54    1
    59    25    55    1
    60    26    56    1
    61    26    57    1
    62    27    58    1
    63    27    59    1
    64    29    60    1
    65    29    61    1
    66    29    62    1
    67    30    63    1
    68    30    64    1
    69    30    65    1
    70    34    66    1
    71    35    67    1
    72    68     1    1
    73    68    33    1
    74    68    18    1
    75    68    11    1
@<TRIPOS>MOLECULE
*****
 68 75 0 0 0
SMALL
GASTEIGER

@<TRIPOS>ATOM
      1 O          -2.3122    0.7690   -2.2460 O.2     1  UNL1        0.0000
      2 C          -2.0888    0.3739   -1.5467 C.2     1  UNL1        0.0000
      3 N          -2.2550   -1.7696    1.9911 N.am    1  UNL1        0.0000
      4 C          -3.3187   -1.7857    2.6954 C.3     1  UNL1        0.0000
      5 C          -0.2262   -3.0606    2.7498 C.3     1  UNL1        0.0000
      6 C           1.0440   -2.3065    1.9768 C.3     1  UNL1        0.0000
      7 C          -0.3512   -1.9618   -2.1011 C.3     1  UNL1        0.0000
      8 C           0.8266    2.2510   -1.4041 C.ar    1  UNL1        0.0000
      9 C           1.7708    1.2773   -1.2292 C.ar    1  UNL1        0.0000
     10 C           0.3088   -1.2174   -3.8884 C.ar    1  UNL1        0.0000
     11 N           0.8143    2.6172   -2.1545 N.ar    1  UNL1        0.0000
     12 C           1.7025    0.9426   -3.2140 C.ar    1  UNL1        0.0000
     13 C           0.6770   -1.3354   -3.9964 C.ar    1  UNL1        0.0000
     14 C           1.1039   -3.8540   -1.4226 C.ar    1  UNL1        0.0000
     15 C           1.4627   -2.6694    0.0322 C.ar    1  UNL1        0.0000
     16 C           2.2632   -1.4578   -0.0448 C.ar    1  UNL1        0.0000
     17 C           3.0994   -0.3090   -0.5696 C.ar    1  UNL1        0.0000
     18 N           2.5913    0.5702    0.4095 N.ar    1  UNL1        0.0000
     19 C          -0.0406   -0.4790    1.4534 C.ar    1  UNL1        0.0000
     20 C          -0.9098   -0.1418    1.9360 C.ar    1  UNL1        0.0000
     21 N          -2.8804   -1.0316    0.4667 N.ar    1  UNL1        0.0000
     22 C          -3.1070   -0.8960   -0.3430 C.ar    1  UNL1        0.0000
     23 C          -1.9105   -1.5559   -0.8408 C.3     1  UNL1        0.0000
     24 C          -0.1310    0.0795   -1.4519 C.3     1  UNL1        0.0000
     25 C           0.0415   -0.1140   -1.0893 C.3     1  UNL1        0.0000
     26 C           0.0633    0.2084   -0.9215 C.3     1  UNL1        0.0000
     27 C          -1.7152    0.8008    0.3787 C.3     1  UNL1        0.0000
     28 C          -0.1777    1.4136    0.6171 C.3     1  UNL1        0.0000
     29 C           0.8068    2.4296    0.6622 C.3     1  UNL1        0.0000
     30 C          -0.6976   -2.4421    0.9274 C.3     1  UNL1        0.0000
     31 C          -2.6464    1.7917   -0.1500 C.ar    1  UNL1        0.0000
     32 N          -2.5672    3.1739    0.1615 N.ar    1  UNL1        0.0000
     33 N          -1.3299    2.9626    0.8760 N.ar    1  UNL1        0.0000
     34 C          -0.0820   -0.4564    1.3656 C.ar    1  UNL1        0.0000
     35 C           1.3767   -0.8023    0.4864 C.ar    1  UNL1        0.0000
     36 H          -3.1868   -0.9427    2.7855 H       1  UNL1        0.0000
     37 H          -1.9985   -3.4011    3.4454 H       1  UNL1        0.0000
     38 H          -1.9095   -0.4613    3.5160 H       1  UNL1        0.0000
     39 H           2.1575   -4.3980    0.4376 H       1  UNL1        0.0000
     40 H          -1.1894   -1.9013    2.7296 H       1  UNL1        0.0000
     41 H           2.8094   -1.8243    2.6770 H       1  UNL1        0.0000
     42 H          -0.8967   -3.5184   -0.4819 H       1  UNL1        0.0000
     43 H          -0.4955    0.6667   -3.1828 H       1  UNL1        0.0000
     44 H           1.9240   -0.4610   -2.0215 H       1  UNL1        0.0000
     45 H          -0.0358   -2.6083   -1.9494 H       1  UNL1        0.0000
     46 H           1.4769    0.9679    1.5836 H       1  UNL1        0.0000
     47 H          -0.3153   -2.5717   -4.1632 H       1  UNL1        0.0000
     48 H           2.2029   -4.3531   -1.4634 H       1  UNL1        0.0000
     49 H           1.1402   -2.5830    3.7784 H       1  UNL1        0.0000
     50 H          -1.1705   -1.3344   -0.3859 H       1  UNL1        0.0000
     51 H          -1.1107   -1.4620   -0.4992 H       1  UNL1        0.0000
     52 H          -1.7830    2.1531   -3.0965 H       1  UNL1        0.0000
     53 H           2.1898   -2.3998   -1.9204 H       1  UNL1        0.0000
     54 H          -0.9329    1.9988   -0.9030 H       1  UNL1        0.0000
     55 H           1.0399   -1.4028   -1.3292 H       1  UNL1        0.0000
     56 H           3.1236    2.0940    0.0753 H       1  UNL1        0.0000
     57 H           2.2063   -1.2935   -3.1912 H       1  UNL1        0.0000
     58 H          -3.7111   -0.5689   -2.2942 H       1  UNL1        0.0000
     59 H           1.5064   -0.4320    2.2746 H       1  UNL1        0.0000
     60 H          -2.6398    2.1717    1.7743 H       1  UNL1        0.0000
     61 H           3.3951    2.2317   -1.9481 H       1  UNL1        0.0000
     62 H           2.6913    3.0857   -0.9898 H       1  UNL1        0.0000
     63 H          -0.1592    0.8676    3.0957 H       1  UNL1        0.0000
     64 H           0.8856   -3.9278    1.2826 H       1  UNL1        0.0000
     65 H          -2.3815   -3.2759    0.9847 H       1  UNL1        0.0000
     66 H          -1.6002    1.4517    2.6215 H       1  UNL1        0.0000
     67 H           2.8918    1.6262    1.7766 H       1  UNL1        0.0000
     68 EU          0.5437    2.5513   -2.1900 Eu      1  UNL1        0.0000
@<TRIPOS>BOND
     1     1     2    2
     2     2     3   am
     3     3     4    1
     4     3     5    1
     5     5     6    1
     6     6     7    1
     7     2     8    1
     8     8     9   ar
     9     9    10   ar
    10     8    11   ar
    11    11    12   ar
    12    12    13   ar
    13    10    13   ar
    14    13    14   ar
    15    14    15   ar
    16    15    16   ar
    17    16    17   ar
    18    12    17   ar
    19    17    18   ar
    20    18    19   ar
    21    19    20    1
    22    20    21   ar
    23    21    22   ar
    24    22    23    1
    25    23    24    1
    26    23    25    1
    27    23    26    1
    28    26    27    1
    29    27    28    1
    30    28    29    1
    31    28    30    1
    32    22    31   ar
    33    28    31    1
    34    31    32   ar
    35    32    33   ar
    36    20    33   ar
    37    19    34   ar
    38    34    35   ar
    39    16    35   ar
    40     4    36    1
    41     4    37    1
    42     4    38    1
    43     5    39    1
    44     5    40    1
    45     6    41    1
    46     6    42    1
    47     7    43    1
    48     7    44    1
    49     7    45    1
    50     9    46    1
    51    10    47    1
    52    14    48    1
    53    15    49    1
    54    24    50    1
    55    24    51    1
    56    24    52    1
    57    25    53    1
    58    25    54    1
    59    25    55    1
    60    26    56    1
    61    26    57    1
    62    27    58    1
    63    27    59    1
    64    29    60    1
    65    29    61    1
    66    29    62    1
    67    30    63    1
    68    30    64    1
    69    30    65    1
    70    34    66    1
    71    35    67    1
    72    68     1    1
    73    68    33    1
    74    68    18    1
    75    68    11    1
@<TRIPOS>MOLECULE
*****
 68 75 0 0 0
SMALL
GASTEIGER

@<TRIPOS>ATOM
      1 O          -2.3122    0.7690   -2.2460 O.2     1  UNL1        0.0000
      2 C          -2.0888    0.3739   -1.5467 C.2     1  UNL1        0.0000
      3 N          -2.2550   -1.7696    1.9911 N.am    1  UNL1        0.0000
      4 C          -3.3187   -1.7857    2.6954 C.3     1  UNL1        0.0000
      5 C          -0.2262   -3.0606    2.7498 C.3     1  UNL1        0.0000
      6 C           1.0440   -2.3065    1.9768 C.3     1  UNL1        0.0000
      7 C          -0.3512   -1.9618   -2.1011 C.3     1  UNL1        0.0000
      8 C           0.8266    2.2510   -1.4041 C.ar    1  UNL1        0.0000
      9 C           1.7708    1.2773   -1.2292 C.ar    1  UNL1        0.0000
     10 C           0.3088   -1.2174   -3.8884 C.ar    1  UNL1        0.0000
     11 N           0.8143    2.6172   -2.1545 N.ar    1  UNL1        0.0000
     12 C           1.7025    0.9426   -3.2140 C.ar    1  UNL1        0.0000
     13 C           0.6770   -1.3354   -3.9964 C.ar    1  UNL1        0.0000
     14 C           1.1039   -3.8540   -1.4226 C.ar    1  UNL1        0.0000
     15 C           1.4627   -2.6694    0.0322 C.ar    1  UNL1        0.0000
     16 C           2.2632   -1.4578   -0.0448 C.ar    1  UNL1        0.0000
     17 C           3.0994   -0.3090   -0.5696 C.ar    1  UNL1        0.0000
     18 N           2.5913    0.5702    0.4095 N.ar    1  UNL1        0.0000
     19 C          -0.0406   -0.4790    1.4534 C.ar    1  UNL1        0.0000
     20 C          -0.9098   -0.1418    1.9360 C.ar    1  UNL1        0.0000
     21 N          -2.8804   -1.0316    0.4667 N.ar    1  UNL1        0.0000
     22 C          -3.1070   -0.8960   -0.3430 C.ar    1  UNL1        0.0000
     23 C          -1.9105   -1.5559   -0.8408 C.3     1  UNL1        0.0000
     24 C          -0.1310    0.0795   -1.4519 C.3     1  UNL1        0.0000
     25 C           0.0415   -0.1140   -1.0893 C.3     1  UNL1        0.0000
     26 C           0.0633    0.2084   -0.9215 C.3     1  UNL1        0.0000
     27 C          -1.7152    0.8008    0.3787 C.3     1  UNL1        0.0000
     28 C          -0.1777    1.4136    0.6171 C.3     1  UNL1        0.0000
     29 C           0.8068    2.4296    0.6622 C.3     1  UNL1        0.0000
     30 C          -0.6976   -2.4421    0.9274 C.3     1  UNL1        0.0000
     31 C          -2.6464    1.7917   -0.1500 C.ar    1  UNL1        0.0000
     32 N          -2.5672    3.1739    0.1615 N.ar    1  UNL1        0.0000
     33 N          -1.3299    2.9626    0.8760 N.ar    1  UNL1        0.0000
     34 C          -0.0820   -0.4564    1.3656 C.ar    1  UNL1        0.0000
     35 C           1.3767   -0.8023    0.4864 C.ar    1  UNL1        0.0000
     36 H          -3.1868   -0.9427    2.7855 H       1  UNL1        0.0000
     37 H          -1.9985   -3.4011    3.4454 H       1  UNL1        0.0000
     38 H          -1.9095   -0.4613    3.5160 H       1  UNL1        0.0000
     39 H           2.1575   -4.3980    0.4376 H       1  UNL1        0.0000
     40 H          -1.1894   -1.9013    2.7296 H       1  UNL1        0.0000
     41 H           2.8094   -1.8243    2.6770 H       1  UNL1        0.0000
     42 H          -0.8967   -3.5184   -0.4819 H       1  UNL1        0.0000
     43 H          -0.4955    0.6667   -3.1828 H       1  UNL1        0.0000
     44 H           1.9240   -0.4610   -2.0215 H       1  UNL1        0.0000
     45 H          -0.0358   -2.6083   -1.9494 H       1  UNL1        0.0000
     46 H           1.4769    0.9679    1.5836 H       1  UNL1        0.0000
     47 H          -0.3153   -2.5717   -4.1632 H       1  UNL1        0.0000
     48 H           2.2029   -4.3531   -1.4634 H       1  UNL1        0.0000
     49 H           1.1402   -2.5830    3.7784 H       1  UNL1        0.0000
     50 H          -1.1705   -1.3344   -0.3859 H       1  UNL1        0.0000
     51 H          -1.1107   -1.4620   -0.4992 H       1  UNL1        0.0000
     52 H          -1.7830    2.1531   -3.0965 H       1  UNL1        0.0000
     53 H           2.1898   -2.3998   -1.9204 H       1  UNL1        0.0000
     54 H          -0.9329    1.9988   -0.9030 H       1  UNL1        0.0000
     55 H           1.0399   -1.4028   -1.3292 H       1  UNL1        0.0000
     56 H           3.1236    2.0940    0.0753 H       1  UNL1        0.0000
     57 H           2.2063   -1.2935   -3.1912 H       1  UNL1        0.0000
     58 H          -3.7111   -0.5689   -2.2942 H       1  UNL1        0.0000
     59 H           1.5064   -0.4320    2.2746 H       1  UNL1        0.0000
     60 H          -2.6398    2.1717    1.7743 H       1  UNL1        0.0000
     61 H           3.3951    2.2317   -1.9481 H       1  UNL1        0.0000
     62 H           2.6913    3.0857   -0.9898 H       1  UNL1        0.0000
     63 H          -0.1592    0.8676    3.0957 H       1  UNL1        0.0000
     64 H           0.8856   -3.9278    1.2826 H       1  UNL1        0.0000
     65 H          -2.3815   -3.2759    0.9847 H       1  UNL1        0.0000
     66 H          -1.6002    1.4517    2.6215 H       1  UNL1        0.0000
     67 H           2.8918    1.6262    1.7766 H       1  UNL1        0.0000
     68 EU          0.5437    2.5513   -2.1900 Eu      1  UNL1        0.0000
@<TRIPOS>BOND
     1     1     2    2
     2     2     3   am
     3     3     4    1
     4     3     5    1
     5     5     6    1
     6     6     7    1
     7     2     8    1
     8     8     9   ar
     9     9    10   ar
    10     8    11   ar
    11    11    12   ar
    12    12    13   ar
    13    10    13   ar
    14    13    14   ar
    15    14    15   ar
    16    15    16   ar
    17    16    17   ar
    18    12    17   ar
    19    17    18   ar
    20    18    19   ar
    21    19    20    1
    22    20    21   ar
    23    21    22   ar
    24    22    23    1
    25    23    24    1
    26    23    25    1
    27    23    26    1
    28    26    27    1
    29    27    28    1
    30    28    29    1
    31    28    30    1
    32    22    31   ar
    33    28    31    1
    34    31    32   ar
    35    32    33   ar
    36    20    33   ar
    37    19    34   ar
    38    34    35   ar
    39    16    35   ar
    40     4    36    1
    41     4    37    1
    42     4    38    1
    43     5    39    1
    44     5    40    1
    45     6    41    1
    46     6    42    1
    47     7    43    1
    48     7    44    1
    49     7    45    1
    50     9    46    1
    51    10    47    1
    52    14    48    1
    53    15    49    1
    54    24    50    1
    55    24    51    1
    56    24    52    1
    57    25    53    1
    58    25    54    1
    59    25    55    1
    60    26    56    1
    61    26    57    1
    62    27    58    1
    63    27    59    1
    64    29    60    1
    65    29    61    1
    66    29    62    1
    67    30    63    1
    68    30    64    1
    69    30    65    1
    70    34    66    1
    71    35    67    1
    72    68     1    1
    73    68    33    1
    74    68    18    1
    75    68    11    1
@<TRIPOS>MOLECULE
*****
 68 75 0 0 0
SMALL
GASTEIGER

@<TRIPOS>ATOM
      1 O          -2.3122    0.7690   -2.2460 O.2     1  UNL1        0.0000
      2 C          -2.0888    0.3739   -1.5467 C.2     1  UNL1        0.0000
      3 N          -2.2550   -1.7696    1.9911 N.am    1  UNL1        0.0000
      4 C          -3.3187   -1.7857    2.6954 C.3     1  UNL1        0.0000
      5 C          -0.2262   -3.0606    2.7498 C.3     1  UNL1        0.0000
      6 C           1.0440   -2.3065    1.9768 C.3     1  UNL1        0.0000
      7 C          -0.3512   -1.9618   -2.1011 C.3     1  UNL1        0.0000
      8 C           0.8266    2.2510   -1.4041 C.ar    1  UNL1        0.0000
      9 C           1.7708    1.2773   -1.2292 C.ar    1  UNL1        0.0000
     10 C           0.3088   -1.2174   -3.8884 C.ar    1  UNL1        0.0000
     11 N           0.8143    2.6172   -2.1545 N.ar    1  UNL1        0.0000
     12 C           1.7025    0.9426   -3.2140 C.ar    1  UNL1        0.0000
     13 C           0.6770   -1.3354   -3.9964 C.ar    1  UNL1        0.0000
     14 C           1.1039   -3.8540   -1.4226 C.ar    1  UNL1        0.0000
     15 C           1.4627   -2.6694    0.0322 C.ar    1  UNL1        0.0000
     16 C           2.2632   -1.4578   -0.0448 C.ar    1  UNL1        0.0000
     17 C           3.0994   -0.3090   -0.5696 C.ar    1  UNL1        0.0000
     18 N           2.5913    0.5702    0.4095 N.ar    1  UNL1        0.0000
     19 C          -0.0406   -0.4790    1.4534 C.ar    1  UNL1        0.0000
     20 C          -0.9098   -0.1418    1.9360 C.ar    1  UNL1        0.0000
     21 N          -2.8804   -1.0316    0.4667 N.ar    1  UNL1        0.0000
     22 C          -3.1070   -0.8960   -0.3430 C.ar    1  UNL1        0.0000
     23 C          -1.9105   -1.5559   -0.8408 C.3     1  UNL1        0.0000
     24 C          -0.1310    0.0795   -1.4519 C.3     1  UNL1        0.0000
     25 C           0.0415   -0.1140   -1.0893 C.3     1  UNL1        0.0000
     26 C           0.0633    0.2084   -0.9215 C.3     1  UNL1        0.0000
     27 C          -1.7152    0.8008    0.3787 C.3     1  UNL1        0.0000
     28 C          -0.1777    1.4136    0.6171 C.3     1  UNL1        0.0000
     29 C           0.8068    2.4296    0.6622 C.3     1  UNL1        0.0000
     30 C          -0.6976   -2.4421    0.9274 C.3     1  UNL1        0.0000
     31 C          -2.6464    1.7917   -0.1500 C.ar    1  UNL1        0.0000
     32 N          -2.5672    3.1739    0.1615 N.ar    1  UNL1        0.0000
     33 N          -1.3299    2.9626    0.8760 N.ar    1  UNL1        0.0000
     34 C          -0.0820   -0.4564    1.3656 C.ar    1  UNL1        0.0000
     35 C           1.3767   -0.8023    0.4864 C.ar    1  UNL1        0.0000
     36 H          -3.1868   -0.9427    2.7855 H       1  UNL1        0.0000
     37 H          -1.9985   -3.4011    3.4454 H       1  UNL1        0.0000
     38 H          -1.9095   -0.4613    3.5160 H       1  UNL1        0.0000
     39 H           2.1575   -4.3980    0.4376 H       1  UNL1        0.0000
     40 H          -1.1894   -1.9013    2.7296 H       1  UNL1        0.0000
     41 H           2.8094   -1.8243    2.6770 H       1  UNL1        0.0000
     42 H          -0.8967   -3.5184   -0.4819 H       1  UNL1        0.0000
     43 H          -0.4955    0.6667   -3.1828 H       1  UNL1        0.0000
     44 H           1.9240   -0.4610   -2.0215 H       1  UNL1        0.0000
     45 H          -0.0358   -2.6083   -1.9494 H       1  UNL1        0.0000
     46 H           1.4769    0.9679    1.5836 H       1  UNL1        0.0000
     47 H          -0.3153   -2.5717   -4.1632 H       1  UNL1        0.0000
     48 H           2.2029   -4.3531   -1.4634 H       1  UNL1        0.0000
     49 H           1.1402   -2.5830    3.7784 H       1  UNL1        0.0000
     50 H          -1.1705   -1.3344   -0.3859 H       1  UNL1        0.0000
     51 H          -1.1107   -1.4620   -0.4992 H       1  UNL1        0.0000
     52 H          -1.7830    2.1531   -3.0965 H       1  UNL1        0.0000
     53 H           2.1898   -2.3998   -1.9204 H       1  UNL1        0.0000
     54 H          -0.9329    1.9988   -0.9030 H       1  UNL1        0.0000
     55 H           1.0399   -1.4028   -1.3292 H       1  UNL1        0.0000
     56 H           3.1236    2.0940    0.0753 H       1  UNL1        0.0000
     57 H           2.2063   -1.2935   -3.1912 H       1  UNL1        0.0000
     58 H          -3.7111   -0.5689   -2.2942 H       1  UNL1        0.0000
     59 H           1.5064   -0.4320    2.2746 H       1  UNL1        0.0000
     60 H          -2.6398    2.1717    1.7743 H       1  UNL1        0.0000
     61 H           3.3951    2.2317   -1.9481 H       1  UNL1        0.0000
     62 H           2.6913    3.0857   -0.9898 H       1  UNL1        0.0000
     63 H          -0.1592    0.8676    3.0957 H       1  UNL1        0.0000
     64 H           0.8856   -3.9278    1.2826 H       1  UNL1        0.0000
     65 H          -2.3815   -3.2759    0.9847 H       1  UNL1        0.0000
     66 H          -1.6002    1.4517    2.6215 H       1  UNL1        0.0000
     67 H           2.8918    1.6262    1.7766 H       1  UNL1        0.0000
     68 EU          0.5437    2.5513   -2.1900 Eu      1  UNL1        0.0000
@<TRIPOS>BOND
     1     1     2    2
     2     2     3   am
     3     3     4    1
     4     3     5    1
     5     5     6    1
     6     6     7    1
     7     2     8    1
     8     8     9   ar
     9     9    10   ar
    10     8    11   ar
    11    11    12   ar
    12    12    13   ar
    13    10    13   ar
    14    13    14   ar
    15    14    15   ar
    16    15    16   ar
    17    16    17   ar
    18    12    17   ar
    19    17    18   ar
    20    18    19   ar
    21    19    20    1
    22    20    21   ar
    23    21    22   ar
    24    22    23    1
    25    23    24    1
    26    23    25    1
    27    23    26    1
    28    26    27    1
    29    27    28    1
    30    28    29    1
    31    28    30    1
    32    22    31   ar
    33    28    31    1
    34    31    32   ar
    35    32    33   ar
    36    20    33   ar
    37    19    34   ar
    38    34    35   ar
    39    16    35   ar
    40     4    36    1
    41     4    37    1
    42     4    38    1
    43     5    39    1
    44     5    40    1
    45     6    41    1
    46     6    42    1
    47     7    43    1
    48     7    44    1
    49     7    45    1
    50     9    46    1
    51    10    47    1
    52    14    48    1
    53    15    49    1
    54    24    50    1
    55    24    51    1
    56    24    52    1
    57    25    53    1
    58    25    54    1
    59    25    55    1
    60    26    56    1
    61    26    57    1
    62    27    58    1
    63    27    59    1
    64    29    60    1
    65    29    61    1
    66    29    62    1
    67    30    63    1
    68    30    64    1
    69    30    65    1
    70    34    66    1
    71    35    67    1
    72    68     1    1
    73    68    33    1
    74    68    18    1
    75    68    11    1
@<TRIPOS>MOLECULE
*****
 68 75 0 0 0
SMALL
GASTEIGER

@<TRIPOS>ATOM
      1 O          -2.3122    0.7690   -2.2460 O.2     1  UNL1        0.0000
      2 C          -2.0888    0.3739   -1.5467 C.2     1  UNL1        0.0000
      3 N          -2.2550   -1.7696    1.9911 N.am    1  UNL1        0.0000
      4 C          -3.3187   -1.7857    2.6954 C.3     1  UNL1        0.0000
      5 C          -0.2262   -3.0606    2.7498 C.3     1  UNL1        0.0000
      6 C           1.0440   -2.3065    1.9768 C.3     1  UNL1        0.0000
      7 C          -0.3512   -1.9618   -2.1011 C.3     1  UNL1        0.0000
      8 C           0.8266    2.2510   -1.4041 C.ar    1  UNL1        0.0000
      9 C           1.7708    1.2773   -1.2292 C.ar    1  UNL1        0.0000
     10 C           0.3088   -1.2174   -3.8884 C.ar    1  UNL1        0.0000
     11 N           0.8143    2.6172   -2.1545 N.ar    1  UNL1        0.0000
     12 C           1.7025    0.9426   -3.2140 C.ar    1  UNL1        0.0000
     13 C           0.6770   -1.3354   -3.9964 C.ar    1  UNL1        0.0000
     14 C           1.1039   -3.8540   -1.4226 C.ar    1  UNL1        0.0000
     15 C           1.4627   -2.6694    0.0322 C.ar    1  UNL1        0.0000
     16 C           2.2632   -1.4578   -0.0448 C.ar    1  UNL1        0.0000
     17 C           3.0994   -0.3090   -0.5696 C.ar    1  UNL1        0.0000
     18 N           2.5913    0.5702    0.4095 N.ar    1  UNL1        0.0000
     19 C          -0.0406   -0.4790    1.4534 C.ar    1  UNL1        0.0000
     20 C          -0.9098   -0.1418    1.9360 C.ar    1  UNL1        0.0000
     21 N          -2.8804   -1.0316    0.4667 N.ar    1  UNL1        0.0000
     22 C          -3.1070   -0.8960   -0.3430 C.ar    1  UNL1        0.0000
     23 C          -1.9105   -1.5559   -0.8408 C.3     1  UNL1        0.0000
     24 C          -0.1310    0.0795   -1.4519 C.3     1  UNL1        0.0000
     25 C           0.0415   -0.1140   -1.0893 C.3     1  UNL1        0.0000
     26 C           0.0633    0.2084   -0.9215 C.3     1  UNL1        0.0000
     27 C          -1.7152    0.8008    0.3787 C.3     1  UNL1        0.0000
     28 C          -0.1777    1.4136    0.6171 C.3     1  UNL1        0.0000
     29 C           0.8068    2.4296    0.6622 C.3     1  UNL1        0.0000
     30 C          -0.6976   -2.4421    0.9274 C.3     1  UNL1        0.0000
     31 C          -2.6464    1.7917   -0.1500 C.ar    1  UNL1        0.0000
     32 N          -2.5672    3.1739    0.1615 N.ar    1  UNL1        0.0000
     33 N          -1.3299    2.9626    0.8760 N.ar    1  UNL1        0.0000
     34 C          -0.0820   -0.4564    1.3656 C.ar    1  UNL1        0.0000
     35 C           1.3767   -0.8023    0.4864 C.ar    1  UNL1        0.0000
     36 H          -3.1868   -0.9427    2.7855 H       1  UNL1        0.0000
     37 H          -1.9985   -3.4011    3.4454 H       1  UNL1        0.0000
     38 H          -1.9095   -0.4613    3.5160 H       1  UNL1        0.0000
     39 H           2.1575   -4.3980    0.4376 H       1  UNL1        0.0000
     40 H          -1.1894   -1.9013    2.7296 H       1  UNL1        0.0000
     41 H           2.8094   -1.8243    2.6770 H       1  UNL1        0.0000
     42 H          -0.8967   -3.5184   -0.4819 H       1  UNL1        0.0000
     43 H          -0.4955    0.6667   -3.1828 H       1  UNL1        0.0000
     44 H           1.9240   -0.4610   -2.0215 H       1  UNL1        0.0000
     45 H          -0.0358   -2.6083   -1.9494 H       1  UNL1        0.0000
     46 H           1.4769    0.9679    1.5836 H       1  UNL1        0.0000
     47 H          -0.3153   -2.5717   -4.1632 H       1  UNL1        0.0000
     48 H           2.2029   -4.3531   -1.4634 H       1  UNL1        0.0000
     49 H           1.1402   -2.5830    3.7784 H       1  UNL1        0.0000
     50 H          -1.1705   -1.3344   -0.3859 H       1  UNL1        0.0000
     51 H          -1.1107   -1.4620   -0.4992 H       1  UNL1        0.0000
     52 H          -1.7830    2.1531   -3.0965 H       1  UNL1        0.0000
     53 H           2.1898   -2.3998   -1.9204 H       1  UNL1        0.0000
     54 H          -0.9329    1.9988   -0.9030 H       1  UNL1        0.0000
     55 H           1.0399   -1.4028   -1.3292 H       1  UNL1        0.0000
     56 H           3.1236    2.0940    0.0753 H       1  UNL1        0.0000
     57 H           2.2063   -1.2935   -3.1912 H       1  UNL1        0.0000
     58 H          -3.7111   -0.5689   -2.2942 H       1  UNL1        0.0000
     59 H           1.5064   -0.4320    2.2746 H       1  UNL1        0.0000
     60 H          -2.6398    2.1717    1.7743 H       1  UNL1        0.0000
     61 H           3.3951    2.2317   -1.9481 H       1  UNL1        0.0000
     62 H           2.6913    3.0857   -0.9898 H       1  UNL1        0.0000
     63 H          -0.1592    0.8676    3.0957 H       1  UNL1        0.0000
     64 H           0.8856   -3.9278    1.2826 H       1  UNL1        0.0000
     65 H          -2.3815   -3.2759    0.9847 H       1  UNL1        0.0000
     66 H          -1.6002    1.4517    2.6215 H       1  UNL1        0.0000
     67 H           2.8918    1.6262    1.7766 H       1  UNL1        0.0000
     68 EU          0.5437    2.5513   -2.1900 Eu      1  UNL1        0.0000
@<TRIPOS>BOND
     1     1     2    2
     2     2     3   am
     3     3     4    1
     4     3     5    1
     5     5     6    1
     6     6     7    1
     7     2     8    1
     8     8     9   ar
     9     9    10   ar
    10     8    11   ar
    11    11    12   ar
    12    12    13   ar
    13    10    13   ar
    14    13    14   ar
    15    14    15   ar
    16    15    16   ar
    17    16    17   ar
    18    12    17   ar
    19    17    18   ar
    20    18    19   ar
    21    19    20    1
    22    20    21   ar
    23    21    22   ar
    24    22    23    1
    25    23    24    1
    26    23    25    1
    27    23    26    1
    28    26    27    1
    29    27    28    1
    30    28    29    1
    31    28    30    1
    32    22    31   ar
    33    28    31    1
    34    31    32   ar
    35    32    33   ar
    36    20    33   ar
    37    19    34   ar
    38    34    35   ar
    39    16    35   ar
    40     4    36    1
    41     4    37    1
    42     4    38    1
    43     5    39    1
    44     5    40    1
    45     6    41    1
    46     6    42    1
    47     7    43    1
    48     7    44    1
    49     7    45    1
    50     9    46    1
    51    10    47    1
    52    14    48    1
    53    15    49    1
    54    24    50    1
    55    24    51    1
    56    24    52    1
    57    25    53    1
    58    25    54    1
    59    25    55    1
    60    26    56    1
    61    26    57    1
    62    27    58    1
    63    27    59    1
    64    29    60    1
    65    29    61    1
    66    29    62    1
    67    30    63    1
    68    30    64    1
    69    30    65    1
    70    34    66    1
    71    35    67    1
    72    68     1    1
    73    68    33    1
    74    68    18    1
    75    68    11    1
@<TRIPOS>MOLECULE
*****
 68 75 0 0 0
SMALL
GASTEIGER

@<TRIPOS>ATOM
      1 O          -2.3122    0.7690   -2.2460 O.2     1  UNL1        0.0000
      2 C          -2.0888    0.3739   -1.5467 C.2     1  UNL1        0.0000
      3 N          -2.2550   -1.7696    1.9911 N.am    1  UNL1        0.0000
      4 C          -3.3187   -1.7857    2.6954 C.3     1  UNL1        0.0000
      5 C          -0.2262   -3.0606    2.7498 C.3     1  UNL1        0.0000
      6 C           1.0440   -2.3065    1.9768 C.3     1  UNL1        0.0000
      7 C          -0.3512   -1.9618   -2.1011 C.3     1  UNL1        0.0000
      8 C           0.8266    2.2510   -1.4041 C.ar    1  UNL1        0.0000
      9 C           1.7708    1.2773   -1.2292 C.ar    1  UNL1        0.0000
     10 C           0.3088   -1.2174   -3.8884 C.ar    1  UNL1        0.0000
     11 N           0.8143    2.6172   -2.1545 N.ar    1  UNL1        0.0000
     12 C           1.7025    0.9426   -3.2140 C.ar    1  UNL1        0.0000
     13 C           0.6770   -1.3354   -3.9964 C.ar    1  UNL1        0.0000
     14 C           1.1039   -3.8540   -1.4226 C.ar    1  UNL1        0.0000
     15 C           1.4627   -2.6694    0.0322 C.ar    1  UNL1        0.0000
     16 C           2.2632   -1.4578   -0.0448 C.ar    1  UNL1        0.0000
     17 C           3.0994   -0.3090   -0.5696 C.ar    1  UNL1        0.0000
     18 N           2.5913    0.5702    0.4095 N.ar    1  UNL1        0.0000
     19 C          -0.0406   -0.4790    1.4534 C.ar    1  UNL1        0.0000
     20 C          -0.9098   -0.1418    1.9360 C.ar    1  UNL1        0.0000
     21 N          -2.8804   -1.0316    0.4667 N.ar    1  UNL1        0.0000
     22 C          -3.1070   -0.8960   -0.3430 C.ar    1  UNL1        0.0000
     23 C          -1.9105   -1.5559   -0.8408 C.3     1  UNL1        0.0000
     24 C          -0.1310    0.0795   -1.4519 C.3     1  UNL1        0.0000
     25 C           0.0415   -0.1140   -1.0893 C.3     1  UNL1        0.0000
     26 C           0.0633    0.2084   -0.9215 C.3     1  UNL1        0.0000
     27 C          -1.7152    0.8008    0.3787 C.3     1  UNL1        0.0000
     28 C          -0.1777    1.4136    0.6171 C.3     1  UNL1        0.0000
     29 C           0.8068    2.4296    0.6622 C.3     1  UNL1        0.0000
     30 C          -0.6976   -2.4421    0.9274 C.3     1  UNL1        0.0000
     31 C          -2.6464    1.7917   -0.1500 C.ar    1  UNL1        0.0000
     32 N          -2.5672    3.1739    0.1615 N.ar    1  UNL1        0.0000
     33 N          -1.3299    2.9626    0.8760 N.ar    1  UNL1        0.0000
     34 C          -0.0820   -0.4564    1.3656 C.ar    1  UNL1        0.0000
     35 C           1.3767   -0.8023    0.4864 C.ar    1  UNL1        0.0000
     36 H          -3.1868   -0.9427    2.7855 H       1  UNL1        0.0000
     37 H          -1.9985   -3.4011    3.4454 H       1  UNL1        0.0000
     38 H          -1.9095   -0.4613    3.5160 H       1  UNL1        0.0000
     39 H           2.1575   -4.3980    0.4376 H       1  UNL1        0.0000
     40 H          -1.1894   -1.9013    2.7296 H       1  UNL1        0.0000
     41 H           2.8094   -1.8243    2.6770 H       1  UNL1        0.0000
     42 H          -0.8967   -3.5184   -0.4819 H       1  UNL1        0.0000
     43 H          -0.4955    0.6667   -3.1828 H       1  UNL1        0.0000
     44 H           1.9240   -0.4610   -2.0215 H       1  UNL1        0.0000
     45 H          -0.0358   -2.6083   -1.9494 H       1  UNL1        0.0000
     46 H           1.4769    0.9679    1.5836 H       1  UNL1        0.0000
     47 H          -0.3153   -2.5717   -4.1632 H       1  UNL1        0.0000
     48 H           2.2029   -4.3531   -1.4634 H       1  UNL1        0.0000
     49 H           1.1402   -2.5830    3.7784 H       1  UNL1        0.0000
     50 H          -1.1705   -1.3344   -0.3859 H       1  UNL1        0.0000
     51 H          -1.1107   -1.4620   -0.4992 H       1  UNL1        0.0000
     52 H          -1.7830    2.1531   -3.0965 H       1  UNL1        0.0000
     53 H           2.1898   -2.3998   -1.9204 H       1  UNL1        0.0000
     54 H          -0.9329    1.9988   -0.9030 H       1  UNL1        0.0000
     55 H           1.0399   -1.4028   -1.3292 H       1  UNL1        0.0000
     56 H           3.1236    2.0940    0.0753 H       1  UNL1        0.0000
     57 H           2.2063   -1.2935   -3.1912 H       1  UNL1        0.0000
     58 H          -3.7111   -0.5689   -2.2942 H       1  UNL1        0.0000
     59 H           1.5064   -0.4320    2.2746 H       1  UNL1        0.0000
     60 H          -2.6398    2.1717    1.7743 H       1  UNL1        0.0000
     61 H           3.3951    2.2317   -1.9481 H       1  UNL1        0.0000
     62 H           2.6913    3.0857   -0.9898 H       1  UNL1        0.0000
     63 H          -0.1592    0.8676    3.0957 H       1  UNL1        0.0000
     64 H           0.8856   -3.9278    1.2826 H       1  UNL1        0.0000
     65 H          -2.3815   -3.2759    0.9847 H       1  UNL1        0.0000
     66 H          -1.6002    1.4517    2.6215 H       1  UNL1        0.0000
     67 H           2.8918    1.6262    1.7766 H       1  UNL1        0.0000
     68 EU          0.5437    2.5513   -2.1900 Eu      1  UNL1        0.0000
@<TRIPOS>BOND
     1     1     2    2
     2     2     3   am
     3     3     4    1
     4     3     5    1
     5     5     6    1
     6     6     7    1
     7     2     8    1
     8     8     9   ar
     9     9    10   ar
    10     8    11   ar
    11    11    12   ar
    12    12    13   ar
    13    10    13   ar
    14    13    14   ar
    15    14    15   ar
    16    15    16   ar
    17    16    17   ar
    18    12    17   ar
    19    17    18   ar
    20    18    19   ar
    21    19    20    1
    22    20    21   ar
    23    21    22   ar
    24    22    23    1
    25    23    24    1
    26    23    25    1
    27    23    26    1
    28    26    27    1
    29    27    28    1
    30    28    29    1
    31    28    30    1
    32    22    31   ar
    33    28    31    1
    34    31    32   ar
    35    32    33   ar
    36    20    33   ar
    37    19    34   ar
    38    34    35   ar
    39    16    35   ar
    40     4    36    1
    41     4    37    1
    42     4    38    1
    43     5    39    1
    44     5    40    1
    45     6    41    1
    46     6    42    1
    47     7    43    1
    48     7    44    1
    49     7    45    1
    50     9    46    1
    51    10    47    1
    52    14    48    1
    53    15    49    1
    54    24    50    1
    55    24    51    1
    56    24    52    1
    57    25    53    1
    58    25    54    1
    59    25    55    1
    60    26    56    1
    61    26    57    1
    62    27    58    1
    63    27    59    1
    64    29    60    1
    65    29    61    1
    66    29    62    1
    67    30    63    1
    68    30    64    1
    69    30    65    1
    70    34    66    1
    71    35    67    1
    72    68     1    1
    73    68    33    1
    74    68    18    1
    75    68    11    1
@<TRIPOS>MOLECULE
*****
 68 75 0 0 0
SMALL
GASTEIGER

@<TRIPOS>ATOM
      1 O          -2.3122    0.7690   -2.2460 O.2     1  UNL1        0.0000
      2 C          -2.0888    0.3739   -1.5467 C.2     1  UNL1        0.0000
      3 N          -2.2550   -1.7696    1.9911 N.am    1  UNL1        0.0000
      4 C          -3.3187   -1.7857    2.6954 C.3     1  UNL1        0.0000
      5 C          -0.2262   -3.0606    2.7498 C.3     1  UNL1        0.0000
      6 C           1.0440   -2.3065    1.9768 C.3     1  UNL1        0.0000
      7 C          -0.3512   -1.9618   -2.1011 C.3     1  UNL1        0.0000
      8 C           0.8266    2.2510   -1.4041 C.ar    1  UNL1        0.0000
      9 C           1.7708    1.2773   -1.2292 C.ar    1  UNL1        0.0000
     10 C           0.3088   -1.2174   -3.8884 C.ar    1  UNL1        0.0000
     11 N           0.8143    2.6172   -2.1545 N.ar    1  UNL1        0.0000
     12 C           1.7025    0.9426   -3.2140 C.ar    1  UNL1        0.0000
     13 C           0.6770   -1.3354   -3.9964 C.ar    1  UNL1        0.0000
     14 C           1.1039   -3.8540   -1.4226 C.ar    1  UNL1        0.0000
     15 C           1.4627   -2.6694    0.0322 C.ar    1  UNL1        0.0000
     16 C           2.2632   -1.4578   -0.0448 C.ar    1  UNL1        0.0000
     17 C           3.0994   -0.3090   -0.5696 C.ar    1  UNL1        0.0000
     18 N           2.5913    0.5702    0.4095 N.ar    1  UNL1        0.0000
     19 C          -0.0406   -0.4790    1.4534 C.ar    1  UNL1        0.0000
     20 C          -0.9098   -0.1418    1.9360 C.ar    1  UNL1        0.0000
     21 N          -2.8804   -1.0316    0.4667 N.ar    1  UNL1        0.0000
     22 C          -3.1070   -0.8960   -0.3430 C.ar    1  UNL1        0.0000
     23 C          -1.9105   -1.5559   -0.8408 C.3     1  UNL1        0.0000
     24 C          -0.1310    0.0795   -1.4519 C.3     1  UNL1        0.0000
     25 C           0.0415   -0.1140   -1.0893 C.3     1  UNL1        0.0000
     26 C           0.0633    0.2084   -0.9215 C.3     1  UNL1        0.0000
     27 C          -1.7152    0.8008    0.3787 C.3     1  UNL1        0.0000
     28 C          -0.1777    1.4136    0.6171 C.3     1  UNL1        0.0000
     29 C           0.8068    2.4296    0.6622 C.3     1  UNL1        0.0000
     30 C          -0.6976   -2.4421    0.9274 C.3     1  UNL1        0.0000
     31 C          -2.6464    1.7917   -0.1500 C.ar    1  UNL1        0.0000
     32 N          -2.5672    3.1739    0.1615 N.ar    1  UNL1        0.0000
     33 N          -1.3299    2.9626    0.8760 N.ar    1  UNL1        0.0000
     34 C          -0.0820   -0.4564    1.3656 C.ar    1  UNL1        0.0000
     35 C           1.3767   -0.8023    0.4864 C.ar    1  UNL1        0.0000
     36 H          -3.1868   -0.9427    2.7855 H       1  UNL1        0.0000
     37 H          -1.9985   -3.4011    3.4454 H       1  UNL1        0.0000
     38 H          -1.9095   -0.4613    3.5160 H       1  UNL1        0.0000
     39 H           2.1575   -4.3980    0.4376 H       1  UNL1        0.0000
     40 H          -1.1894   -1.9013    2.7296 H       1  UNL1        0.0000
     41 H           2.8094   -1.8243    2.6770 H       1  UNL1        0.0000
     42 H          -0.8967   -3.5184   -0.4819 H       1  UNL1        0.0000
     43 H          -0.4955    0.6667   -3.1828 H       1  UNL1        0.0000
     44 H           1.9240   -0.4610   -2.0215 H       1  UNL1        0.0000
     45 H          -0.0358   -2.6083   -1.9494 H       1  UNL1        0.0000
     46 H           1.4769    0.9679    1.5836 H       1  UNL1        0.0000
     47 H          -0.3153   -2.5717   -4.1632 H       1  UNL1        0.0000
     48 H           2.2029   -4.3531   -1.4634 H       1  UNL1        0.0000
     49 H           1.1402   -2.5830    3.7784 H       1  UNL1        0.0000
     50 H          -1.1705   -1.3344   -0.3859 H       1  UNL1        0.0000
     51 H          -1.1107   -1.4620   -0.4992 H       1  UNL1        0.0000
     52 H          -1.7830    2.1531   -3.0965 H       1  UNL1        0.0000
     53 H           2.1898   -2.3998   -1.9204 H       1  UNL1        0.0000
     54 H          -0.9329    1.9988   -0.9030 H       1  UNL1        0.0000
     55 H           1.0399   -1.4028   -1.3292 H       1  UNL1        0.0000
     56 H           3.1236    2.0940    0.0753 H       1  UNL1        0.0000
     57 H           2.2063   -1.2935   -3.1912 H       1  UNL1        0.0000
     58 H          -3.7111   -0.5689   -2.2942 H       1  UNL1        0.0000
     59 H           1.5064   -0.4320    2.2746 H       1  UNL1        0.0000
     60 H          -2.6398    2.1717    1.7743 H       1  UNL1        0.0000
     61 H           3.3951    2.2317   -1.9481 H       1  UNL1        0.0000
     62 H           2.6913    3.0857   -0.9898 H       1  UNL1        0.0000
     63 H          -0.1592    0.8676    3.0957 H       1  UNL1        0.0000
     64 H           0.8856   -3.9278    1.2826 H       1  UNL1        0.0000
     65 H          -2.3815   -3.2759    0.9847 H       1  UNL1        0.0000
     66 H          -1.6002    1.4517    2.6215 H       1  UNL1        0.0000
     67 H           2.8918    1.6262    1.7766 H       1  UNL1        0.0000
     68 EU          0.5437    2.5513   -2.1900 Eu      1  UNL1        0.0000
@<TRIPOS>BOND
     1     1     2    2
     2     2     3   am
     3     3     4    1
     4     3     5    1
     5     5     6    1
     6     6     7    1
     7     2     8    1
     8     8     9   ar
     9     9    10   ar
    10     8    11   ar
    11    11    12   ar
    12    12    13   ar
    13    10    13   ar
    14    13    14   ar
    15    14    15   ar
    16    15    16   ar
    17    16    17   ar
    18    12    17   ar
    19    17    18   ar
    20    18    19   ar
    21    19    20    1
    22    20    21   ar
    23    21    22   ar
    24    22    23    1
    25    23    24    1
    26    23    25    1
    27    23    26    1
    28    26    27    1
    29    27    28    1
    30    28    29    1
    31    28    30    1
    32    22    31   ar
    33    28    31    1
    34    31    32   ar
    35    32    33   ar
    36    20    33   ar
    37    19    34   ar
    38    34    35   ar
    39    16    35   ar
    40     4    36    1
    41     4    37    1
    42     4    38    1
    43     5    39    1
    44     5    40    1
    45     6    41    1
    46     6    42    1
    47     7    43    1
    48     7    44    1
    49     7    45    1
    50     9    46    1
    51    10    47    1
    52    14    48    1
    53    15    49    1
    54    24    50    1
    55    24    51    1
    56    24    52    1
    57    25    53    1
    58    25    54    1
    59    25    55    1
    60    26    56    1
    61    26    57    1
    62    27    58    1
    63    27    59    1
    64    29    60    1
    65    29    61    1
    66    29    62    1
    67    30    63    1
    68    30    64    1
    69    30    65    1
    70    34    66    1
    71    35    67    1
    72    68     1    1
    73    68    33    1
    74    68    18    1
    75    68    11    1
@<TRIPOS>MOLECULE
*****
 68 75 0 0 0
SMALL
GASTEIGER

@<TRIPOS>ATOM
      1 O          -2.3122    0.7690   -2.2460 O.2     1  UNL1        0.0000
      2 C          -2.0888    0.3739   -1.5467 C.2     1  UNL1        0.0000
      3 N          -2.2550   -1.7696    1.9911 N.am    1  UNL1        0.0000
      4 C          -3.3187   -1.7857    2.6954 C.3     1  UNL1        0.0000
      5 C          -0.2262   -3.0606    2.7498 C.3     1  UNL1        0.0000
      6 C           1.0440   -2.3065    1.9768 C.3     1  UNL1        0.0000
      7 C          -0.3512   -1.9618   -2.1011 C.3     1  UNL1        0.0000
      8 C           0.8266    2.2510   -1.4041 C.ar    1  UNL1        0.0000
      9 C           1.7708    1.2773   -1.2292 C.ar    1  UNL1        0.0000
     10 C           0.3088   -1.2174   -3.8884 C.ar    1  UNL1        0.0000
     11 N           0.8143    2.6172   -2.1545 N.ar    1  UNL1        0.0000
     12 C           1.7025    0.9426   -3.2140 C.ar    1  UNL1        0.0000
     13 C           0.6770   -1.3354   -3.9964 C.ar    1  UNL1        0.0000
     14 C           1.1039   -3.8540   -1.4226 C.ar    1  UNL1        0.0000
     15 C           1.4627   -2.6694    0.0322 C.ar    1  UNL1        0.0000
     16 C           2.2632   -1.4578   -0.0448 C.ar    1  UNL1        0.0000
     17 C           3.0994   -0.3090   -0.5696 C.ar    1  UNL1        0.0000
     18 N           2.5913    0.5702    0.4095 N.ar    1  UNL1        0.0000
     19 C          -0.0406   -0.4790    1.4534 C.ar    1  UNL1        0.0000
     20 C          -0.9098   -0.1418    1.9360 C.ar    1  UNL1        0.0000
     21 N          -2.8804   -1.0316    0.4667 N.ar    1  UNL1        0.0000
     22 C          -3.1070   -0.8960   -0.3430 C.ar    1  UNL1        0.0000
     23 C          -1.9105   -1.5559   -0.8408 C.3     1  UNL1        0.0000
     24 C          -0.1310    0.0795   -1.4519 C.3     1  UNL1        0.0000
     25 C           0.0415   -0.1140   -1.0893 C.3     1  UNL1        0.0000
     26 C           0.0633    0.2084   -0.9215 C.3     1  UNL1        0.0000
     27 C          -1.7152    0.8008    0.3787 C.3     1  UNL1        0.0000
     28 C          -0.1777    1.4136    0.6171 C.3     1  UNL1        0.0000
     29 C           0.8068    2.4296    0.6622 C.3     1  UNL1        0.0000
     30 C          -0.6976   -2.4421    0.9274 C.3     1  UNL1        0.0000
     31 C          -2.6464    1.7917   -0.1500 C.ar    1  UNL1        0.0000
     32 N          -2.5672    3.1739    0.1615 N.ar    1  UNL1        0.0000
     33 N          -1.3299    2.9626    0.8760 N.ar    1  UNL1        0.0000
     34 C          -0.0820   -0.4564    1.3656 C.ar    1  UNL1        0.0000
     35 C           1.3767   -0.8023    0.4864 C.ar    1  UNL1        0.0000
     36 H          -3.1868   -0.9427    2.7855 H       1  UNL1        0.0000
     37 H          -1.9985   -3.4011    3.4454 H       1  UNL1        0.0000
     38 H          -1.9095   -0.4613    3.5160 H       1  UNL1        0.0000
     39 H           2.1575   -4.3980    0.4376 H       1  UNL1        0.0000
     40 H          -1.1894   -1.9013    2.7296 H       1  UNL1        0.0000
     41 H           2.8094   -1.8243    2.6770 H       1  UNL1        0.0000
     42 H          -0.8967   -3.5184   -0.4819 H       1  UNL1        0.0000
     43 H          -0.4955    0.6667   -3.1828 H       1  UNL1        0.0000
     44 H           1.9240   -0.4610   -2.0215 H       1  UNL1        0.0000
     45 H          -0.0358   -2.6083   -1.9494 H       1  UNL1        0.0000
     46 H           1.4769    0.9679    1.5836 H       1  UNL1        0.0000
     47 H          -0.3153   -2.5717   -4.1632 H       1  UNL1        0.0000
     48 H           2.2029   -4.3531   -1.4634 H       1  UNL1        0.0000
     49 H           1.1402   -2.5830    3.7784 H       1  UNL1        0.0000
     50 H          -1.1705   -1.3344   -0.3859 H       1  UNL1        0.0000
     51 H          -1.1107   -1.4620   -0.4992 H       1  UNL1        0.0000
     52 H          -1.7830    2.1531   -3.0965 H       1  UNL1        0.0000
     53 H           2.1898   -2.3998   -1.9204 H       1  UNL1        0.0000
     54 H          -0.9329    1.9988   -0.9030 H       1  UNL1        0.0000
     55 H           1.0399   -1.4028   -1.3292 H       1  UNL1        0.0000
     56 H           3.1236    2.0940    0.0753 H       1  UNL1        0.0000
     57 H           2.2063   -1.2935   -3.1912 H       1  UNL1        0.0000
     58 H          -3.7111   -0.5689   -2.2942 H       1  UNL1        0.0000
     59 H           1.5064   -0.4320    2.2746 H       1  UNL1        0.0000
     60 H          -2.6398    2.1717    1.7743 H       1  UNL1        0.0000
     61 H           3.3951    2.2317   -1.9481 H       1  UNL1        0.0000
     62 H           2.6913    3.0857   -0.9898 H       1  UNL1        0.0000
     63 H          -0.1592    0.8676    3.0957 H       1  UNL1        0.0000
     64 H           0.8856   -3.9278    1.2826 H       1  UNL1        0.0000
     65 H          -2.3815   -3.2759    0.9847 H       1  UNL1        0.0000
     66 H          -1.6002    1.4517    2.6215 H       1  UNL1        0.0000
     67 H           2.8918    1.6262    1.7766 H       1  UNL1        0.0000
     68 EU          0.5437    2.5513   -2.1900 Eu      1  UNL1        0.0000
@<TRIPOS>BOND
     1     1     2    2
     2     2     3   am
     3     3     4    1
     4     3     5    1
     5     5     6    1
     6     6     7    1
     7     2     8    1
     8     8     9   ar
     9     9    10   ar
    10     8    11   ar
    11    11    12   ar
    12    12    13   ar
    13    10    13   ar
    14    13    14   ar
    15    14    15   ar
    16    15    16   ar
    17    16    17   ar
    18    12    17   ar
    19    17    18   ar
    20    18    19   ar
    21    19    20    1
    22    20    21   ar
    23    21    22   ar
    24    22    23    1
    25    23    24    1
    26    23    25    1
    27    23    26    1
    28    26    27    1
    29    27    28    1
    30    28    29    1
    31    28    30    1
    32    22    31   ar
    33    28    31    1
    34    31    32   ar
    35    32    33   ar
    36    20    33   ar
    37    19    34   ar
    38    34    35   ar
    39    16    35   ar
    40     4    36    1
    41     4    37    1
    42     4    38    1
    43     5    39    1
    44     5    40    1
    45     6    41    1
    46     6    42    1
    47     7    43    1
    48     7    44    1
    49     7    45    1
    50     9    46    1
    51    10    47    1
    52    14    48    1
    53    15    49    1
    54    24    50    1
    55    24    51    1
    56    24    52    1
    57    25    53    1
    58    25    54    1
    59    25    55    1
    60    26    56    1
    61    26    57    1
    62    27    58    1
    63    27    59    1
    64    29    60    1
    65    29    61    1
    66    29    62    1
    67    30    63    1
    68    30    64    1
    69    30    65    1
    70    34    66    1
    71    35    67    1
    72    68     1    1
    73    68    33    1
    74    68    18    1
    75    68    11    1
@<TRIPOS>MOLECULE
*****
 68 75 0 0 0
SMALL
GASTEIGER

@<TRIPOS>ATOM
      1 O          -2.3122    0.7690   -2.2460 O.2     1  UNL1        0.0000
      2 C          -2.0888    0.3739   -1.5467 C.2     1  UNL1        0.0000
      3 N          -2.2550   -1.7696    1.9911 N.am    1  UNL1        0.0000
      4 C          -3.3187   -1.7857    2.6954 C.3     1  UNL1        0.0000
      5 C          -0.2262   -3.0606    2.7498 C.3     1  UNL1        0.0000
      6 C           1.0440   -2.3065    1.9768 C.3     1  UNL1        0.0000
      7 C          -0.3512   -1.9618   -2.1011 C.3     1  UNL1        0.0000
      8 C           0.8266    2.2510   -1.4041 C.ar    1  UNL1        0.0000
      9 C           1.7708    1.2773   -1.2292 C.ar    1  UNL1        0.0000
     10 C           0.3088   -1.2174   -3.8884 C.ar    1  UNL1        0.0000
     11 N           0.8143    2.6172   -2.1545 N.ar    1  UNL1        0.0000
     12 C           1.7025    0.9426   -3.2140 C.ar    1  UNL1        0.0000
     13 C           0.6770   -1.3354   -3.9964 C.ar    1  UNL1        0.0000
     14 C           1.1039   -3.8540   -1.4226 C.ar    1  UNL1        0.0000
     15 C           1.4627   -2.6694    0.0322 C.ar    1  UNL1        0.0000
     16 C           2.2632   -1.4578   -0.0448 C.ar    1  UNL1        0.0000
     17 C           3.0994   -0.3090   -0.5696 C.ar    1  UNL1        0.0000
     18 N           2.5913    0.5702    0.4095 N.ar    1  UNL1        0.0000
     19 C          -0.0406   -0.4790    1.4534 C.ar    1  UNL1        0.0000
     20 C          -0.9098   -0.1418    1.9360 C.ar    1  UNL1        0.0000
     21 N          -2.8804   -1.0316    0.4667 N.ar    1  UNL1        0.0000
     22 C          -3.1070   -0.8960   -0.3430 C.ar    1  UNL1        0.0000
     23 C          -1.9105   -1.5559   -0.8408 C.3     1  UNL1        0.0000
     24 C          -0.1310    0.0795   -1.4519 C.3     1  UNL1        0.0000
     25 C           0.0415   -0.1140   -1.0893 C.3     1  UNL1        0.0000
     26 C           0.0633    0.2084   -0.9215 C.3     1  UNL1        0.0000
     27 C          -1.7152    0.8008    0.3787 C.3     1  UNL1        0.0000
     28 C          -0.1777    1.4136    0.6171 C.3     1  UNL1        0.0000
     29 C           0.8068    2.4296    0.6622 C.3     1  UNL1        0.0000
     30 C          -0.6976   -2.4421    0.9274 C.3     1  UNL1        0.0000
     31 C          -2.6464    1.7917   -0.1500 C.ar    1  UNL1        0.0000
     32 N          -2.5672    3.1739    0.1615 N.ar    1  UNL1        0.0000
     33 N          -1.3299    2.9626    0.8760 N.ar    1  UNL1        0.0000
     34 C          -0.0820   -0.4564    1.3656 C.ar    1  UNL1        0.0000
     35 C           1.3767   -0.8023    0.4864 C.ar    1  UNL1        0.0000
     36 H          -3.1868   -0.9427    2.7855 H       1  UNL1        0.0000
     37 H          -1.9985   -3.4011    3.4454 H       1  UNL1        0.0000
     38 H          -1.9095   -0.4613    3.5160 H       1  UNL1        0.0000
     39 H           2.1575   -4.3980    0.4376 H       1  UNL1        0.0000
     40 H          -1.1894   -1.9013    2.7296 H       1  UNL1        0.0000
     41 H           2.8094   -1.8243    2.6770 H       1  UNL1        0.0000
     42 H          -0.8967   -3.5184   -0.4819 H       1  UNL1        0.0000
     43 H          -0.4955    0.6667   -3.1828 H       1  UNL1        0.0000
     44 H           1.9240   -0.4610   -2.0215 H       1  UNL1        0.0000
     45 H          -0.0358   -2.6083   -1.9494 H       1  UNL1        0.0000
     46 H           1.4769    0.9679    1.5836 H       1  UNL1        0.0000
     47 H          -0.3153   -2.5717   -4.1632 H       1  UNL1        0.0000
     48 H           2.2029   -4.3531   -1.4634 H       1  UNL1        0.0000
     49 H           1.1402   -2.5830    3.7784 H       1  UNL1        0.0000
     50 H          -1.1705   -1.3344   -0.3859 H       1  UNL1        0.0000
     51 H          -1.1107   -1.4620   -0.4992 H       1  UNL1        0.0000
     52 H          -1.7830    2.1531   -3.0965 H       1  UNL1        0.0000
     53 H           2.1898   -2.3998   -1.9204 H       1  UNL1        0.0000
     54 H          -0.9329    1.9988   -0.9030 H       1  UNL1        0.0000
     55 H           1.0399   -1.4028   -1.3292 H       1  UNL1        0.0000
     56 H           3.1236    2.0940    0.0753 H       1  UNL1        0.0000
     57 H           2.2063   -1.2935   -3.1912 H       1  UNL1        0.0000
     58 H          -3.7111   -0.5689   -2.2942 H       1  UNL1        0.0000
     59 H           1.5064   -0.4320    2.2746 H       1  UNL1        0.0000
     60 H          -2.6398    2.1717    1.7743 H       1  UNL1        0.0000
     61 H           3.3951    2.2317   -1.9481 H       1  UNL1        0.0000
     62 H           2.6913    3.0857   -0.9898 H       1  UNL1        0.0000
     63 H          -0.1592    0.8676    3.0957 H       1  UNL1        0.0000
     64 H           0.8856   -3.9278    1.2826 H       1  UNL1        0.0000
     65 H          -2.3815   -3.2759    0.9847 H       1  UNL1        0.0000
     66 H          -1.6002    1.4517    2.6215 H       1  UNL1        0.0000
     67 H           2.8918    1.6262    1.7766 H       1  UNL1        0.0000
     68 EU          0.5437    2.5513   -2.1900 Eu      1  UNL1        0.0000
@<TRIPOS>BOND
     1     1     2    2
     2     2     3   am
     3     3     4    1
     4     3     5    1
     5     5     6    1
     6     6     7    1
     7     2     8    1
     8     8     9   ar
     9     9    10   ar
    10     8    11   ar
    11    11    12   ar
    12    12    13   ar
    13    10    13   ar
    14    13    14   ar
    15    14    15   ar
    16    15    16   ar
    17    16    17   ar
    18    12    17   ar
    19    17    18   ar
    20    18    19   ar
    21    19    20    1
    22    20    21   ar
    23    21    22   ar
    24    22    23    1
    25    23    24    1
    26    23    25    1
    27    23    26    1
    28    26    27    1
    29    27    28    1
    30    28    29    1
    31    28    30    1
    32    22    31   ar
    33    28    31    1
    34    31    32   ar
    35    32    33   ar
    36    20    33   ar
    37    19    34   ar
    38    34    35   ar
    39    16    35   ar
    40     4    36    1
    41     4    37    1
    42     4    38    1
    43     5    39    1
    44     5    40    1
    45     6    41    1
    46     6    42    1
    47     7    43    1
    48     7    44    1
    49     7    45    1
    50     9    46    1
    51    10    47    1
    52    14    48    1
    53    15    49    1
    54    24    50    1
    55    24    51    1
    56    24    52    1
    57    25    53    1
    58    25    54    1
    59    25    55    1
    60    26    56    1
    61    26    57    1
    62    27    58    1
    63    27    59    1
    64    29    60    1
    65    29    61    1
    66    29    62    1
    67    30    63    1
    68    30    64    1
    69    30    65    1
    70    34    66    1
    71    35    67    1
    72    68     1    1
    73    68    33    1
    74    68    18    1
    75    68    11    1
@<TRIPOS>MOLECULE
*****
 68 75 0 0 0
SMALL
GASTEIGER

@<TRIPOS>ATOM
      1 O          -2.3122    0.7690   -2.2460 O.2     1  UNL1        0.0000
      2 C          -2.0888    0.3739   -1.5467 C.2     1  UNL1        0.0000
      3 N          -2.2550   -1.7696    1.9911 N.am    1  UNL1        0.0000
      4 C          -3.3187   -1.7857    2.6954 C.3     1  UNL1        0.0000
      5 C          -0.2262   -3.0606    2.7498 C.3     1  UNL1        0.0000
      6 C           1.0440   -2.3065    1.9768 C.3     1  UNL1        0.0000
      7 C          -0.3512   -1.9618   -2.1011 C.3     1  UNL1        0.0000
      8 C           0.8266    2.2510   -1.4041 C.ar    1  UNL1        0.0000
      9 C           1.7708    1.2773   -1.2292 C.ar    1  UNL1        0.0000
     10 C           0.3088   -1.2174   -3.8884 C.ar    1  UNL1        0.0000
     11 N           0.8143    2.6172   -2.1545 N.ar    1  UNL1        0.0000
     12 C           1.7025    0.9426   -3.2140 C.ar    1  UNL1        0.0000
     13 C           0.6770   -1.3354   -3.9964 C.ar    1  UNL1        0.0000
     14 C           1.1039   -3.8540   -1.4226 C.ar    1  UNL1        0.0000
     15 C           1.4627   -2.6694    0.0322 C.ar    1  UNL1        0.0000
     16 C           2.2632   -1.4578   -0.0448 C.ar    1  UNL1        0.0000
     17 C           3.0994   -0.3090   -0.5696 C.ar    1  UNL1        0.0000
     18 N           2.5913    0.5702    0.4095 N.ar    1  UNL1        0.0000
     19 C          -0.0406   -0.4790    1.4534 C.ar    1  UNL1        0.0000
     20 C          -0.9098   -0.1418    1.9360 C.ar    1  UNL1        0.0000
     21 N          -2.8804   -1.0316    0.4667 N.ar    1  UNL1        0.0000
     22 C          -3.1070   -0.8960   -0.3430 C.ar    1  UNL1        0.0000
     23 C          -1.9105   -1.5559   -0.8408 C.3     1  UNL1        0.0000
     24 C          -0.1310    0.0795   -1.4519 C.3     1  UNL1        0.0000
     25 C           0.0415   -0.1140   -1.0893 C.3     1  UNL1        0.0000
     26 C           0.0633    0.2084   -0.9215 C.3     1  UNL1        0.0000
     27 C          -1.7152    0.8008    0.3787 C.3     1  UNL1        0.0000
     28 C          -0.1777    1.4136    0.6171 C.3     1  UNL1        0.0000
     29 C           0.8068    2.4296    0.6622 C.3     1  UNL1        0.0000
     30 C          -0.6976   -2.4421    0.9274 C.3     1  UNL1        0.0000
     31 C          -2.6464    1.7917   -0.1500 C.ar    1  UNL1        0.0000
     32 N          -2.5672    3.1739    0.1615 N.ar    1  UNL1        0.0000
     33 N          -1.3299    2.9626    0.8760 N.ar    1  UNL1        0.0000
     34 C          -0.0820   -0.4564    1.3656 C.ar    1  UNL1        0.0000
     35 C           1.3767   -0.8023    0.4864 C.ar    1  UNL1        0.0000
     36 H          -3.1868   -0.9427    2.7855 H       1  UNL1        0.0000
     37 H          -1.9985   -3.4011    3.4454 H       1  UNL1        0.0000
     38 H          -1.9095   -0.4613    3.5160 H       1  UNL1        0.0000
     39 H           2.1575   -4.3980    0.4376 H       1  UNL1        0.0000
     40 H          -1.1894   -1.9013    2.7296 H       1  UNL1        0.0000
     41 H           2.8094   -1.8243    2.6770 H       1  UNL1        0.0000
     42 H          -0.8967   -3.5184   -0.4819 H       1  UNL1        0.0000
     43 H          -0.4955    0.6667   -3.1828 H       1  UNL1        0.0000
     44 H           1.9240   -0.4610   -2.0215 H       1  UNL1        0.0000
     45 H          -0.0358   -2.6083   -1.9494 H       1  UNL1        0.0000
     46 H           1.4769    0.9679    1.5836 H       1  UNL1        0.0000
     47 H          -0.3153   -2.5717   -4.1632 H       1  UNL1        0.0000
     48 H           2.2029   -4.3531   -1.4634 H       1  UNL1        0.0000
     49 H           1.1402   -2.5830    3.7784 H       1  UNL1        0.0000
     50 H          -1.1705   -1.3344   -0.3859 H       1  UNL1        0.0000
     51 H          -1.1107   -1.4620   -0.4992 H       1  UNL1        0.0000
     52 H          -1.7830    2.1531   -3.0965 H       1  UNL1        0.0000
     53 H           2.1898   -2.3998   -1.9204 H       1  UNL1        0.0000
     54 H          -0.9329    1.9988   -0.9030 H       1  UNL1        0.0000
     55 H           1.0399   -1.4028   -1.3292 H       1  UNL1        0.0000
     56 H           3.1236    2.0940    0.0753 H       1  UNL1        0.0000
     57 H           2.2063   -1.2935   -3.1912 H       1  UNL1        0.0000
     58 H          -3.7111   -0.5689   -2.2942 H       1  UNL1        0.0000
     59 H           1.5064   -0.4320    2.2746 H       1  UNL1        0.0000
     60 H          -2.6398    2.1717    1.7743 H       1  UNL1        0.0000
     61 H           3.3951    2.2317   -1.9481 H       1  UNL1        0.0000
     62 H           2.6913    3.0857   -0.9898 H       1  UNL1        0.0000
     63 H          -0.1592    0.8676    3.0957 H       1  UNL1        0.0000
     64 H           0.8856   -3.9278    1.2826 H       1  UNL1        0.0000
     65 H          -2.3815   -3.2759    0.9847 H       1  UNL1        0.0000
     66 H          -1.6002    1.4517    2.6215 H       1  UNL1        0.0000
     67 H           2.8918    1.6262    1.7766 H       1  UNL1        0.0000
     68 EU          0.5437    2.5513   -2.1900 Eu      1  UNL1        0.0000
@<TRIPOS>BOND
     1     1     2    2
     2     2     3   am
     3     3     4    1
     4     3     5    1
     5     5     6    1
     6     6     7    1
     7     2     8    1
     8     8     9   ar
     9     9    10   ar
    10     8    11   ar
    11    11    12   ar
    12    12    13   ar
    13    10    13   ar
    14    13    14   ar
    15    14    15   ar
    16    15    16   ar
    17    16    17   ar
    18    12    17   ar
    19    17    18   ar
    20    18    19   ar
    21    19    20    1
    22    20    21   ar
    23    21    22   ar
    24    22    23    1
    25    23    24    1
    26    23    25    1
    27    23    26    1
    28    26    27    1
    29    27    28    1
    30    28    29    1
    31    28    30    1
    32    22    31   ar
    33    28    31    1
    34    31    32   ar
    35    32    33   ar
    36    20    33   ar
    37    19    34   ar
    38    34    35   ar
    39    16    35   ar
    40     4    36    1
    41     4    37    1
    42     4    38    1
    43     5    39    1
    44     5    40    1
    45     6    41    1
    46     6    42    1
    47     7    43    1
    48     7    44    1
    49     7    45    1
    50     9    46    1
    51    10    47    1
    52    14    48    1
    53    15    49    1
    54    24    50    1
    55    24    51    1
    56    24    52    1
    57    25    53    1
    58    25    54    1
    59    25    55    1
    60    26    56    1
    61    26    57    1
    62    27    58    1
    63    27    59    1
    64    29    60    1
    65    29    61    1
    66    29    62    1
    67    30    63    1
    68    30    64    1
    69    30    65    1
    70    34    66    1
    71    35    67    1
    72    68     1    1
    73    68    33    1
    74    68    18    1
    75    68    11    1
@<TRIPOS>MOLECULE
*****
 68 75 0 0 0
SMALL
GASTEIGER

@<TRIPOS>ATOM
      1 O          -2.3122    0.7690   -2.2460 O.2     1  UNL1        0.0000
      2 C          -2.0888    0.3739   -1.5467 C.2     1  UNL1        0.0000
      3 N          -2.2550   -1.7696    1.9911 N.am    1  UNL1        0.0000
      4 C          -3.3187   -1.7857    2.6954 C.3     1  UNL1        0.0000
      5 C          -0.2262   -3.0606    2.7498 C.3     1  UNL1        0.0000
      6 C           1.0440   -2.3065    1.9768 C.3     1  UNL1        0.0000
      7 C          -0.3512   -1.9618   -2.1011 C.3     1  UNL1        0.0000
      8 C           0.8266    2.2510   -1.4041 C.ar    1  UNL1        0.0000
      9 C           1.7708    1.2773   -1.2292 C.ar    1  UNL1        0.0000
     10 C           0.3088   -1.2174   -3.8884 C.ar    1  UNL1        0.0000
     11 N           0.8143    2.6172   -2.1545 N.ar    1  UNL1        0.0000
     12 C           1.7025    0.9426   -3.2140 C.ar    1  UNL1        0.0000
     13 C           0.6770   -1.3354   -3.9964 C.ar    1  UNL1        0.0000
     14 C           1.1039   -3.8540   -1.4226 C.ar    1  UNL1        0.0000
     15 C           1.4627   -2.6694    0.0322 C.ar    1  UNL1        0.0000
     16 C           2.2632   -1.4578   -0.0448 C.ar    1  UNL1        0.0000
     17 C           3.0994   -0.3090   -0.5696 C.ar    1  UNL1        0.0000
     18 N           2.5913    0.5702    0.4095 N.ar    1  UNL1        0.0000
     19 C          -0.0406   -0.4790    1.4534 C.ar    1  UNL1        0.0000
     20 C          -0.9098   -0.1418    1.9360 C.ar    1  UNL1        0.0000
     21 N          -2.8804   -1.0316    0.4667 N.ar    1  UNL1        0.0000
     22 C          -3.1070   -0.8960   -0.3430 C.ar    1  UNL1        0.0000
     23 C          -1.9105   -1.5559   -0.8408 C.3     1  UNL1        0.0000
     24 C          -0.1310    0.0795   -1.4519 C.3     1  UNL1        0.0000
     25 C           0.0415   -0.1140   -1.0893 C.3     1  UNL1        0.0000
     26 C           0.0633    0.2084   -0.9215 C.3     1  UNL1        0.0000
     27 C          -1.7152    0.8008    0.3787 C.3     1  UNL1        0.0000
     28 C          -0.1777    1.4136    0.6171 C.3     1  UNL1        0.0000
     29 C           0.8068    2.4296    0.6622 C.3     1  UNL1        0.0000
     30 C          -0.6976   -2.4421    0.9274 C.3     1  UNL1        0.0000
     31 C          -2.6464    1.7917   -0.1500 C.ar    1  UNL1        0.0000
     32 N          -2.5672    3.1739    0.1615 N.ar    1  UNL1        0.0000
     33 N          -1.3299    2.9626    0.8760 N.ar    1  UNL1        0.0000
     34 C          -0.0820   -0.4564    1.3656 C.ar    1  UNL1        0.0000
     35 C           1.3767   -0.8023    0.4864 C.ar    1  UNL1        0.0000
     36 H          -3.1868   -0.9427    2.7855 H       1  UNL1        0.0000
     37 H          -1.9985   -3.4011    3.4454 H       1  UNL1        0.0000
     38 H          -1.9095   -0.4613    3.5160 H       1  UNL1        0.0000
     39 H           2.1575   -4.3980    0.4376 H       1  UNL1        0.0000
     40 H          -1.1894   -1.9013    2.7296 H       1  UNL1        0.0000
     41 H           2.8094   -1.8243    2.6770 H       1  UNL1        0.0000
     42 H          -0.8967   -3.5184   -0.4819 H       1  UNL1        0.0000
     43 H          -0.4955    0.6667   -3.1828 H       1  UNL1        0.0000
     44 H           1.9240   -0.4610   -2.0215 H       1  UNL1        0.0000
     45 H          -0.0358   -2.6083   -1.9494 H       1  UNL1        0.0000
     46 H           1.4769    0.9679    1.5836 H       1  UNL1        0.0000
     47 H          -0.3153   -2.5717   -4.1632 H       1  UNL1        0.0000
     48 H           2.2029   -4.3531   -1.4634 H       1  UNL1        0.0000
     49 H           1.1402   -2.5830    3.7784 H       1  UNL1        0.0000
     50 H          -1.1705   -1.3344   -0.3859 H       1  UNL1        0.0000
     51 H          -1.1107   -1.4620   -0.4992 H       1  UNL1        0.0000
     52 H          -1.7830    2.1531   -3.0965 H       1  UNL1        0.0000
     53 H           2.1898   -2.3998   -1.9204 H       1  UNL1        0.0000
     54 H          -0.9329    1.9988   -0.9030 H       1  UNL1        0.0000
     55 H           1.0399   -1.4028   -1.3292 H       1  UNL1        0.0000
     56 H           3.1236    2.0940    0.0753 H       1  UNL1        0.0000
     57 H           2.2063   -1.2935   -3.1912 H       1  UNL1        0.0000
     58 H          -3.7111   -0.5689   -2.2942 H       1  UNL1        0.0000
     59 H           1.5064   -0.4320    2.2746 H       1  UNL1        0.0000
     60 H          -2.6398    2.1717    1.7743 H       1  UNL1        0.0000
     61 H           3.3951    2.2317   -1.9481 H       1  UNL1        0.0000
     62 H           2.6913    3.0857   -0.9898 H       1  UNL1        0.0000
     63 H          -0.1592    0.8676    3.0957 H       1  UNL1        0.0000
     64 H           0.8856   -3.9278    1.2826 H       1  UNL1        0.0000
     65 H          -2.3815   -3.2759    0.9847 H       1  UNL1        0.0000
     66 H          -1.6002    1.4517    2.6215 H       1  UNL1        0.0000
     67 H           2.8918    1.6262    1.7766 H       1  UNL1        0.0000
     68 EU          0.5437    2.5513   -2.1900 Eu      1  UNL1        0.0000
@<TRIPOS>BOND
     1     1     2    2
     2     2     3   am
     3     3     4    1
     4     3     5    1
     5     5     6    1
     6     6     7    1
     7     2     8    1
     8     8     9   ar
     9     9    10   ar
    10     8    11   ar
    11    11    12   ar
    12    12    13   ar
    13    10    13   ar
    14    13    14   ar
    15    14    15   ar
    16    15    16   ar
    17    16    17   ar
    18    12    17   ar
    19    17    18   ar
    20    18    19   ar
    21    19    20    1
    22    20    21   ar
    23    21    22   ar
    24    22    23    1
    25    23    24    1
    26    23    25    1
    27    23    26    1
    28    26    27    1
    29    27    28    1
    30    28    29    1
    31    28    30    1
    32    22    31   ar
    33    28    31    1
    34    31    32   ar
    35    32    33   ar
    36    20    33   ar
    37    19    34   ar
    38    34    35   ar
    39    16    35   ar
    40     4    36    1
    41     4    37    1
    42     4    38    1
    43     5    39    1
    44     5    40    1
    45     6    41    1
    46     6    42    1
    47     7    43    1
    48     7    44    1
    49     7    45    1
    50     9    46    1
    51    10    47    1
    52    14    48    1
    53    15    49    1
    54    24    50    1
    55    24    51    1
    56    24    52    1
    57    25    53    1
    58    25    54    1
    59    25    55    1
    60    26    56    1
    61    26    57    1
    62    27    58    1
    63    27    59    1
    64    29    60    1
    65    29    61    1
    66    29    62    1
    67    30    63    1
    68    30    64    1
    69    30    65    1
    70    34    66    1
    71    35    67    1
    72    68     1    1
    73    68    33    1
    74    68    18    1
    75    68    11    1
@<TRIPOS>MOLECULE
*****
 68 75 0 0 0
SMALL
GASTEIGER

@<TRIPOS>ATOM
      1 O          -2.3122    0.7690   -2.2460 O.2     1  UNL1        0.0000
      2 C          -2.0888    0.3739   -1.5467 C.2     1  UNL1        0.0000
      3 N          -2.2550   -1.7696    1.9911 N.am    1  UNL1        0.0000
      4 C          -3.3187   -1.7857    2.6954 C.3     1  UNL1        0.0000
      5 C          -0.2262   -3.0606    2.7498 C.3     1  UNL1        0.0000
      6 C           1.0440   -2.3065    1.9768 C.3     1  UNL1        0.0000
      7 C          -0.3512   -1.9618   -2.1011 C.3     1  UNL1        0.0000
      8 C           0.8266    2.2510   -1.4041 C.ar    1  UNL1        0.0000
      9 C           1.7708    1.2773   -1.2292 C.ar    1  UNL1        0.0000
     10 C           0.3088   -1.2174   -3.8884 C.ar    1  UNL1        0.0000
     11 N           0.8143    2.6172   -2.1545 N.ar    1  UNL1        0.0000
     12 C           1.7025    0.9426   -3.2140 C.ar    1  UNL1        0.0000
     13 C           0.6770   -1.3354   -3.9964 C.ar    1  UNL1        0.0000
     14 C           1.1039   -3.8540   -1.4226 C.ar    1  UNL1        0.0000
     15 C           1.4627   -2.6694    0.0322 C.ar    1  UNL1        0.0000
     16 C           2.2632   -1.4578   -0.0448 C.ar    1  UNL1        0.0000
     17 C           3.0994   -0.3090   -0.5696 C.ar    1  UNL1        0.0000
     18 N           2.5913    0.5702    0.4095 N.ar    1  UNL1        0.0000
     19 C          -0.0406   -0.4790    1.4534 C.ar    1  UNL1        0.0000
     20 C          -0.9098   -0.1418    1.9360 C.ar    1  UNL1        0.0000
     21 N          -2.8804   -1.0316    0.4667 N.ar    1  UNL1        0.0000
     22 C          -3.1070   -0.8960   -0.3430 C.ar    1  UNL1        0.0000
     23 C          -1.9105   -1.5559   -0.8408 C.3     1  UNL1        0.0000
     24 C          -0.1310    0.0795   -1.4519 C.3     1  UNL1        0.0000
     25 C           0.0415   -0.1140   -1.0893 C.3     1  UNL1        0.0000
     26 C           0.0633    0.2084   -0.9215 C.3     1  UNL1        0.0000
     27 C          -1.7152    0.8008    0.3787 C.3     1  UNL1        0.0000
     28 C          -0.1777    1.4136    0.6171 C.3     1  UNL1        0.0000
     29 C           0.8068    2.4296    0.6622 C.3     1  UNL1        0.0000
     30 C          -0.6976   -2.4421    0.9274 C.3     1  UNL1        0.0000
     31 C          -2.6464    1.7917   -0.1500 C.ar    1  UNL1        0.0000
     32 N          -2.5672    3.1739    0.1615 N.ar    1  UNL1        0.0000
     33 N          -1.3299    2.9626    0.8760 N.ar    1  UNL1        0.0000
     34 C          -0.0820   -0.4564    1.3656 C.ar    1  UNL1        0.0000
     35 C           1.3767   -0.8023    0.4864 C.ar    1  UNL1        0.0000
     36 H          -3.1868   -0.9427    2.7855 H       1  UNL1        0.0000
     37 H          -1.9985   -3.4011    3.4454 H       1  UNL1        0.0000
     38 H          -1.9095   -0.4613    3.5160 H       1  UNL1        0.0000
     39 H           2.1575   -4.3980    0.4376 H       1  UNL1        0.0000
     40 H          -1.1894   -1.9013    2.7296 H       1  UNL1        0.0000
     41 H           2.8094   -1.8243    2.6770 H       1  UNL1        0.0000
     42 H          -0.8967   -3.5184   -0.4819 H       1  UNL1        0.0000
     43 H          -0.4955    0.6667   -3.1828 H       1  UNL1        0.0000
     44 H           1.9240   -0.4610   -2.0215 H       1  UNL1        0.0000
     45 H          -0.0358   -2.6083   -1.9494 H       1  UNL1        0.0000
     46 H           1.4769    0.9679    1.5836 H       1  UNL1        0.0000
     47 H          -0.3153   -2.5717   -4.1632 H       1  UNL1        0.0000
     48 H           2.2029   -4.3531   -1.4634 H       1  UNL1        0.0000
     49 H           1.1402   -2.5830    3.7784 H       1  UNL1        0.0000
     50 H          -1.1705   -1.3344   -0.3859 H       1  UNL1        0.0000
     51 H          -1.1107   -1.4620   -0.4992 H       1  UNL1        0.0000
     52 H          -1.7830    2.1531   -3.0965 H       1  UNL1        0.0000
     53 H           2.1898   -2.3998   -1.9204 H       1  UNL1        0.0000
     54 H          -0.9329    1.9988   -0.9030 H       1  UNL1        0.0000
     55 H           1.0399   -1.4028   -1.3292 H       1  UNL1        0.0000
     56 H           3.1236    2.0940    0.0753 H       1  UNL1        0.0000
     57 H           2.2063   -1.2935   -3.1912 H       1  UNL1        0.0000
     58 H          -3.7111   -0.5689   -2.2942 H       1  UNL1        0.0000
     59 H           1.5064   -0.4320    2.2746 H       1  UNL1        0.0000
     60 H          -2.6398    2.1717    1.7743 H       1  UNL1        0.0000
     61 H           3.3951    2.2317   -1.9481 H       1  UNL1        0.0000
     62 H           2.6913    3.0857   -0.9898 H       1  UNL1        0.0000
     63 H          -0.1592    0.8676    3.0957 H       1  UNL1        0.0000
     64 H           0.8856   -3.9278    1.2826 H       1  UNL1        0.0000
     65 H          -2.3815   -3.2759    0.9847 H       1  UNL1        0.0000
     66 H          -1.6002    1.4517    2.6215 H       1  UNL1        0.0000
     67 H           2.8918    1.6262    1.7766 H       1  UNL1        0.0000
     68 EU          0.5437    2.5513   -2.1900 Eu      1  UNL1        0.0000
@<TRIPOS>BOND
     1     1     2    2
     2     2     3   am
     3     3     4    1
     4     3     5    1
     5     5     6    1
     6     6     7    1
     7     2     8    1
     8     8     9   ar
     9     9    10   ar
    10     8    11   ar
    11    11    12   ar
    12    12    13   ar
    13    10    13   ar
    14    13    14   ar
    15    14    15   ar
    16    15    16   ar
    17    16    17   ar
    18    12    17   ar
    19    17    18   ar
    20    18    19   ar
    21    19    20    1
    22    20    21   ar
    23    21    22   ar
    24    22    23    1
    25    23    24    1
    26    23    25    1
    27    23    26    1
    28    26    27    1
    29    27    28    1
    30    28    29    1
    31    28    30    1
    32    22    31   ar
    33    28    31    1
    34    31    32   ar
    35    32    33   ar
    36    20    33   ar
    37    19    34   ar
    38    34    35   ar
    39    16    35   ar
    40     4    36    1
    41     4    37    1
    42     4    38    1
    43     5    39    1
    44     5    40    1
    45     6    41    1
    46     6    42    1
    47     7    43    1
    48     7    44    1
    49     7    45    1
    50     9    46    1
    51    10    47    1
    52    14    48    1
    53    15    49    1
    54    24    50    1
    55    24    51    1
    56    24    52    1
    57    25    53    1
    58    25    54    1
    59    25    55    1
    60    26    56    1
    61    26    57    1
    62    27    58    1
    63    27    59    1
    64    29    60    1
    65    29    61    1
    66    29    62    1
    67    30    63    1
    68    30    64    1
    69    30    65    1
    70    34    66    1
    71    35    67    1
    72    68     1    1
    73    68    33    1
    74    68    18    1
    75    68    11    1
@<TRIPOS>MOLECULE
*****
 68 75 0 0 0
SMALL
GASTEIGER

@<TRIPOS>ATOM
      1 O          -2.3122    0.7690   -2.2460 O.2     1  UNL1        0.0000
      2 C          -2.0888    0.3739   -1.5467 C.2     1  UNL1        0.0000
      3 N          -2.2550   -1.7696    1.9911 N.am    1  UNL1        0.0000
      4 C          -3.3187   -1.7857    2.6954 C.3     1  UNL1        0.0000
      5 C          -0.2262   -3.0606    2.7498 C.3     1  UNL1        0.0000
      6 C           1.0440   -2.3065    1.9768 C.3     1  UNL1        0.0000
      7 C          -0.3512   -1.9618   -2.1011 C.3     1  UNL1        0.0000
      8 C           0.8266    2.2510   -1.4041 C.ar    1  UNL1        0.0000
      9 C           1.7708    1.2773   -1.2292 C.ar    1  UNL1        0.0000
     10 C           0.3088   -1.2174   -3.8884 C.ar    1  UNL1        0.0000
     11 N           0.8143    2.6172   -2.1545 N.ar    1  UNL1        0.0000
     12 C           1.7025    0.9426   -3.2140 C.ar    1  UNL1        0.0000
     13 C           0.6770   -1.3354   -3.9964 C.ar    1  UNL1        0.0000
     14 C           1.1039   -3.8540   -1.4226 C.ar    1  UNL1        0.0000
     15 C           1.4627   -2.6694    0.0322 C.ar    1  UNL1        0.0000
     16 C           2.2632   -1.4578   -0.0448 C.ar    1  UNL1        0.0000
     17 C           3.0994   -0.3090   -0.5696 C.ar    1  UNL1        0.0000
     18 N           2.5913    0.5702    0.4095 N.ar    1  UNL1        0.0000
     19 C          -0.0406   -0.4790    1.4534 C.ar    1  UNL1        0.0000
     20 C          -0.9098   -0.1418    1.9360 C.ar    1  UNL1        0.0000
     21 N          -2.8804   -1.0316    0.4667 N.ar    1  UNL1        0.0000
     22 C          -3.1070   -0.8960   -0.3430 C.ar    1  UNL1        0.0000
     23 C          -1.9105   -1.5559   -0.8408 C.3     1  UNL1        0.0000
     24 C          -0.1310    0.0795   -1.4519 C.3     1  UNL1        0.0000
     25 C           0.0415   -0.1140   -1.0893 C.3     1  UNL1        0.0000
     26 C           0.0633    0.2084   -0.9215 C.3     1  UNL1        0.0000
     27 C          -1.7152    0.8008    0.3787 C.3     1  UNL1        0.0000
     28 C          -0.1777    1.4136    0.6171 C.3     1  UNL1        0.0000
     29 C           0.8068    2.4296    0.6622 C.3     1  UNL1        0.0000
     30 C          -0.6976   -2.4421    0.9274 C.3     1  UNL1        0.0000
     31 C          -2.6464    1.7917   -0.1500 C.ar    1  UNL1        0.0000
     32 N          -2.5672    3.1739    0.1615 N.ar    1  UNL1        0.0000
     33 N          -1.3299    2.9626    0.8760 N.ar    1  UNL1        0.0000
     34 C          -0.0820   -0.4564    1.3656 C.ar    1  UNL1        0.0000
     35 C           1.3767   -0.8023    0.4864 C.ar    1  UNL1        0.0000
     36 H          -3.1868   -0.9427    2.7855 H       1  UNL1        0.0000
     37 H          -1.9985   -3.4011    3.4454 H       1  UNL1        0.0000
     38 H          -1.9095   -0.4613    3.5160 H       1  UNL1        0.0000
     39 H           2.1575   -4.3980    0.4376 H       1  UNL1        0.0000
     40 H          -1.1894   -1.9013    2.7296 H       1  UNL1        0.0000
     41 H           2.8094   -1.8243    2.6770 H       1  UNL1        0.0000
     42 H          -0.8967   -3.5184   -0.4819 H       1  UNL1        0.0000
     43 H          -0.4955    0.6667   -3.1828 H       1  UNL1        0.0000
     44 H           1.9240   -0.4610   -2.0215 H       1  UNL1        0.0000
     45 H          -0.0358   -2.6083   -1.9494 H       1  UNL1        0.0000
     46 H           1.4769    0.9679    1.5836 H       1  UNL1        0.0000
     47 H          -0.3153   -2.5717   -4.1632 H       1  UNL1        0.0000
     48 H           2.2029   -4.3531   -1.4634 H       1  UNL1        0.0000
     49 H           1.1402   -2.5830    3.7784 H       1  UNL1        0.0000
     50 H          -1.1705   -1.3344   -0.3859 H       1  UNL1        0.0000
     51 H          -1.1107   -1.4620   -0.4992 H       1  UNL1        0.0000
     52 H          -1.7830    2.1531   -3.0965 H       1  UNL1        0.0000
     53 H           2.1898   -2.3998   -1.9204 H       1  UNL1        0.0000
     54 H          -0.9329    1.9988   -0.9030 H       1  UNL1        0.0000
     55 H           1.0399   -1.4028   -1.3292 H       1  UNL1        0.0000
     56 H           3.1236    2.0940    0.0753 H       1  UNL1        0.0000
     57 H           2.2063   -1.2935   -3.1912 H       1  UNL1        0.0000
     58 H          -3.7111   -0.5689   -2.2942 H       1  UNL1        0.0000
     59 H           1.5064   -0.4320    2.2746 H       1  UNL1        0.0000
     60 H          -2.6398    2.1717    1.7743 H       1  UNL1        0.0000
     61 H           3.3951    2.2317   -1.9481 H       1  UNL1        0.0000
     62 H           2.6913    3.0857   -0.9898 H       1  UNL1        0.0000
     63 H          -0.1592    0.8676    3.0957 H       1  UNL1        0.0000
     64 H           0.8856   -3.9278    1.2826 H       1  UNL1        0.0000
     65 H          -2.3815   -3.2759    0.9847 H       1  UNL1        0.0000
     66 H          -1.6002    1.4517    2.6215 H       1  UNL1        0.0000
     67 H           2.8918    1.6262    1.7766 H       1  UNL1        0.0000
     68 EU          0.5437    2.5513   -2.1900 Eu      1  UNL1        0.0000
@<TRIPOS>BOND
     1     1     2    2
     2     2     3   am
     3     3     4    1
     4     3     5    1
     5     5     6    1
     6     6     7    1
     7     2     8    1
     8     8     9   ar
     9     9    10   ar
    10     8    11   ar
    11    11    12   ar
    12    12    13   ar
    13    10    13   ar
    14    13    14   ar
    15    14    15   ar
    16    15    16   ar
    17    16    17   ar
    18    12    17   ar
    19    17    18   ar
    20    18    19   ar
    21    19    20    1
    22    20    21   ar
    23    21    22   ar
    24    22    23    1
    25    23    24    1
    26    23    25    1
    27    23    26    1
    28    26    27    1
    29    27    28    1
    30    28    29    1
    31    28    30    1
    32    22    31   ar
    33    28    31    1
    34    31    32   ar
    35    32    33   ar
    36    20    33   ar
    37    19    34   ar
    38    34    35   ar
    39    16    35   ar
    40     4    36    1
    41     4    37    1
    42     4    38    1
    43     5    39    1
    44     5    40    1
    45     6    41    1
    46     6    42    1
    47     7    43    1
    48     7    44    1
    49     7    45    1
    50     9    46    1
    51    10    47    1
    52    14    48    1
    53    15    49    1
    54    24    50    1
    55    24    51    1
    56    24    52    1
    57    25    53    1
    58    25    54    1
    59    25    55    1
    60    26    56    1
    61    26    57    1
    62    27    58    1
    63    27    59    1
    64    29    60    1
    65    29    61    1
    66    29    62    1
    67    30    63    1
    68    30    64    1
    69    30    65    1
    70    34    66    1
    71    35    67    1
    72    68     1    1
    73    68    33    1
    74    68    18    1
    75    68    11    1
@<TRIPOS>MOLECULE
*****
 68 75 0 0 0
SMALL
GASTEIGER

@<TRIPOS>ATOM
      1 O          -2.3122    0.7690   -2.2460 O.2     1  UNL1        0.0000
      2 C          -2.0888    0.3739   -1.5467 C.2     1  UNL1        0.0000
      3 N          -2.2550   -1.7696    1.9911 N.am    1  UNL1        0.0000
      4 C          -3.3187   -1.7857    2.6954 C.3     1  UNL1        0.0000
      5 C          -0.2262   -3.0606    2.7498 C.3     1  UNL1        0.0000
      6 C           1.0440   -2.3065    1.9768 C.3     1  UNL1        0.0000
      7 C          -0.3512   -1.9618   -2.1011 C.3     1  UNL1        0.0000
      8 C           0.8266    2.2510   -1.4041 C.ar    1  UNL1        0.0000
      9 C           1.7708    1.2773   -1.2292 C.ar    1  UNL1        0.0000
     10 C           0.3088   -1.2174   -3.8884 C.ar    1  UNL1        0.0000
     11 N           0.8143    2.6172   -2.1545 N.ar    1  UNL1        0.0000
     12 C           1.7025    0.9426   -3.2140 C.ar    1  UNL1        0.0000
     13 C           0.6770   -1.3354   -3.9964 C.ar    1  UNL1        0.0000
     14 C           1.1039   -3.8540   -1.4226 C.ar    1  UNL1        0.0000
     15 C           1.4627   -2.6694    0.0322 C.ar    1  UNL1        0.0000
     16 C           2.2632   -1.4578   -0.0448 C.ar    1  UNL1        0.0000
     17 C           3.0994   -0.3090   -0.5696 C.ar    1  UNL1        0.0000
     18 N           2.5913    0.5702    0.4095 N.ar    1  UNL1        0.0000
     19 C          -0.0406   -0.4790    1.4534 C.ar    1  UNL1        0.0000
     20 C          -0.9098   -0.1418    1.9360 C.ar    1  UNL1        0.0000
     21 N          -2.8804   -1.0316    0.4667 N.ar    1  UNL1        0.0000
     22 C          -3.1070   -0.8960   -0.3430 C.ar    1  UNL1        0.0000
     23 C          -1.9105   -1.5559   -0.8408 C.3     1  UNL1        0.0000
     24 C          -0.1310    0.0795   -1.4519 C.3     1  UNL1        0.0000
     25 C           0.0415   -0.1140   -1.0893 C.3     1  UNL1        0.0000
     26 C           0.0633    0.2084   -0.9215 C.3     1  UNL1        0.0000
     27 C          -1.7152    0.8008    0.3787 C.3     1  UNL1        0.0000
     28 C          -0.1777    1.4136    0.6171 C.3     1  UNL1        0.0000
     29 C           0.8068    2.4296    0.6622 C.3     1  UNL1        0.0000
     30 C          -0.6976   -2.4421    0.9274 C.3     1  UNL1        0.0000
     31 C          -2.6464    1.7917   -0.1500 C.ar    1  UNL1        0.0000
     32 N          -2.5672    3.1739    0.1615 N.ar    1  UNL1        0.0000
     33 N          -1.3299    2.9626    0.8760 N.ar    1  UNL1        0.0000
     34 C          -0.0820   -0.4564    1.3656 C.ar    1  UNL1        0.0000
     35 C           1.3767   -0.8023    0.4864 C.ar    1  UNL1        0.0000
     36 H          -3.1868   -0.9427    2.7855 H       1  UNL1        0.0000
     37 H          -1.9985   -3.4011    3.4454 H       1  UNL1        0.0000
     38 H          -1.9095   -0.4613    3.5160 H       1  UNL1        0.0000
     39 H           2.1575   -4.3980    0.4376 H       1  UNL1        0.0000
     40 H          -1.1894   -1.9013    2.7296 H       1  UNL1        0.0000
     41 H           2.8094   -1.8243    2.6770 H       1  UNL1        0.0000
     42 H          -0.8967   -3.5184   -0.4819 H       1  UNL1        0.0000
     43 H          -0.4955    0.6667   -3.1828 H       1  UNL1        0.0000
     44 H           1.9240   -0.4610   -2.0215 H       1  UNL1        0.0000
     45 H          -0.0358   -2.6083   -1.9494 H       1  UNL1        0.0000
     46 H           1.4769    0.9679    1.5836 H       1  UNL1        0.0000
     47 H          -0.3153   -2.5717   -4.1632 H       1  UNL1        0.0000
     48 H           2.2029   -4.3531   -1.4634 H       1  UNL1        0.0000
     49 H           1.1402   -2.5830    3.7784 H       1  UNL1        0.0000
     50 H          -1.1705   -1.3344   -0.3859 H       1  UNL1        0.0000
     51 H          -1.1107   -1.4620   -0.4992 H       1  UNL1        0.0000
     52 H          -1.7830    2.1531   -3.0965 H       1  UNL1        0.0000
     53 H           2.1898   -2.3998   -1.9204 H       1  UNL1        0.0000
     54 H          -0.9329    1.9988   -0.9030 H       1  UNL1        0.0000
     55 H           1.0399   -1.4028   -1.3292 H       1  UNL1        0.0000
     56 H           3.1236    2.0940    0.0753 H       1  UNL1        0.0000
     57 H           2.2063   -1.2935   -3.1912 H       1  UNL1        0.0000
     58 H          -3.7111   -0.5689   -2.2942 H       1  UNL1        0.0000
     59 H           1.5064   -0.4320    2.2746 H       1  UNL1        0.0000
     60 H          -2.6398    2.1717    1.7743 H       1  UNL1        0.0000
     61 H           3.3951    2.2317   -1.9481 H       1  UNL1        0.0000
     62 H           2.6913    3.0857   -0.9898 H       1  UNL1        0.0000
     63 H          -0.1592    0.8676    3.0957 H       1  UNL1        0.0000
     64 H           0.8856   -3.9278    1.2826 H       1  UNL1        0.0000
     65 H          -2.3815   -3.2759    0.9847 H       1  UNL1        0.0000
     66 H          -1.6002    1.4517    2.6215 H       1  UNL1        0.0000
     67 H           2.8918    1.6262    1.7766 H       1  UNL1        0.0000
     68 EU          0.5437    2.5513   -2.1900 Eu      1  UNL1        0.0000
@<TRIPOS>BOND
     1     1     2    2
     2     2     3   am
     3     3     4    1
     4     3     5    1
     5     5     6    1
     6     6     7    1
     7     2     8    1
     8     8     9   ar
     9     9    10   ar
    10     8    11   ar
    11    11    12   ar
    12    12    13   ar
    13    10    13   ar
    14    13    14   ar
    15    14    15   ar
    16    15    16   ar
    17    16    17   ar
    18    12    17   ar
    19    17    18   ar
    20    18    19   ar
    21    19    20    1
    22    20    21   ar
    23    21    22   ar
    24    22    23    1
    25    23    24    1
    26    23    25    1
    27    23    26    1
    28    26    27    1
    29    27    28    1
    30    28    29    1
    31    28    30    1
    32    22    31   ar
    33    28    31    1
    34    31    32   ar
    35    32    33   ar
    36    20    33   ar
    37    19    34   ar
    38    34    35   ar
    39    16    35   ar
    40     4    36    1
    41     4    37    1
    42     4    38    1
    43     5    39    1
    44     5    40    1
    45     6    41    1
    46     6    42    1
    47     7    43    1
    48     7    44    1
    49     7    45    1
    50     9    46    1
    51    10    47    1
    52    14    48    1
    53    15    49    1
    54    24    50    1
    55    24    51    1
    56    24    52    1
    57    25    53    1
    58    25    54    1
    59    25    55    1
    60    26    56    1
    61    26    57    1
    62    27    58    1
    63    27    59    1
    64    29    60    1
    65    29    61    1
    66    29    62    1
    67    30    63    1
    68    30    64    1
    69    30    65    1
    70    34    66    1
    71    35    67    1
    72    68     1    1
    73    68    33    1
    74    68    18    1
    75    68    11    1
@<TRIPOS>MOLECULE
*****
 68 75 0 0 0
SMALL
GASTEIGER

@<TRIPOS>ATOM
      1 O          -2.3122    0.7690   -2.2460 O.2     1  UNL1        0.0000
      2 C          -2.0888    0.3739   -1.5467 C.2     1  UNL1        0.0000
      3 N          -2.2550   -1.7696    1.9911 N.am    1  UNL1        0.0000
      4 C          -3.3187   -1.7857    2.6954 C.3     1  UNL1        0.0000
      5 C          -0.2262   -3.0606    2.7498 C.3     1  UNL1        0.0000
      6 C           1.0440   -2.3065    1.9768 C.3     1  UNL1        0.0000
      7 C          -0.3512   -1.9618   -2.1011 C.3     1  UNL1        0.0000
      8 C           0.8266    2.2510   -1.4041 C.ar    1  UNL1        0.0000
      9 C           1.7708    1.2773   -1.2292 C.ar    1  UNL1        0.0000
     10 C           0.3088   -1.2174   -3.8884 C.ar    1  UNL1        0.0000
     11 N           0.8143    2.6172   -2.1545 N.ar    1  UNL1        0.0000
     12 C           1.7025    0.9426   -3.2140 C.ar    1  UNL1        0.0000
     13 C           0.6770   -1.3354   -3.9964 C.ar    1  UNL1        0.0000
     14 C           1.1039   -3.8540   -1.4226 C.ar    1  UNL1        0.0000
     15 C           1.4627   -2.6694    0.0322 C.ar    1  UNL1        0.0000
     16 C           2.2632   -1.4578   -0.0448 C.ar    1  UNL1        0.0000
     17 C           3.0994   -0.3090   -0.5696 C.ar    1  UNL1        0.0000
     18 N           2.5913    0.5702    0.4095 N.ar    1  UNL1        0.0000
     19 C          -0.0406   -0.4790    1.4534 C.ar    1  UNL1        0.0000
     20 C          -0.9098   -0.1418    1.9360 C.ar    1  UNL1        0.0000
     21 N          -2.8804   -1.0316    0.4667 N.ar    1  UNL1        0.0000
     22 C          -3.1070   -0.8960   -0.3430 C.ar    1  UNL1        0.0000
     23 C          -1.9105   -1.5559   -0.8408 C.3     1  UNL1        0.0000
     24 C          -0.1310    0.0795   -1.4519 C.3     1  UNL1        0.0000
     25 C           0.0415   -0.1140   -1.0893 C.3     1  UNL1        0.0000
     26 C           0.0633    0.2084   -0.9215 C.3     1  UNL1        0.0000
     27 C          -1.7152    0.8008    0.3787 C.3     1  UNL1        0.0000
     28 C          -0.1777    1.4136    0.6171 C.3     1  UNL1        0.0000
     29 C           0.8068    2.4296    0.6622 C.3     1  UNL1        0.0000
     30 C          -0.6976   -2.4421    0.9274 C.3     1  UNL1        0.0000
     31 C          -2.6464    1.7917   -0.1500 C.ar    1  UNL1        0.0000
     32 N          -2.5672    3.1739    0.1615 N.ar    1  UNL1        0.0000
     33 N          -1.3299    2.9626    0.8760 N.ar    1  UNL1        0.0000
     34 C          -0.0820   -0.4564    1.3656 C.ar    1  UNL1        0.0000
     35 C           1.3767   -0.8023    0.4864 C.ar    1  UNL1        0.0000
     36 H          -3.1868   -0.9427    2.7855 H       1  UNL1        0.0000
     37 H          -1.9985   -3.4011    3.4454 H       1  UNL1        0.0000
     38 H          -1.9095   -0.4613    3.5160 H       1  UNL1        0.0000
     39 H           2.1575   -4.3980    0.4376 H       1  UNL1        0.0000
     40 H          -1.1894   -1.9013    2.7296 H       1  UNL1        0.0000
     41 H           2.8094   -1.8243    2.6770 H       1  UNL1        0.0000
     42 H          -0.8967   -3.5184   -0.4819 H       1  UNL1        0.0000
     43 H          -0.4955    0.6667   -3.1828 H       1  UNL1        0.0000
     44 H           1.9240   -0.4610   -2.0215 H       1  UNL1        0.0000
     45 H          -0.0358   -2.6083   -1.9494 H       1  UNL1        0.0000
     46 H           1.4769    0.9679    1.5836 H       1  UNL1        0.0000
     47 H          -0.3153   -2.5717   -4.1632 H       1  UNL1        0.0000
     48 H           2.2029   -4.3531   -1.4634 H       1  UNL1        0.0000
     49 H           1.1402   -2.5830    3.7784 H       1  UNL1        0.0000
     50 H          -1.1705   -1.3344   -0.3859 H       1  UNL1        0.0000
     51 H          -1.1107   -1.4620   -0.4992 H       1  UNL1        0.0000
     52 H          -1.7830    2.1531   -3.0965 H       1  UNL1        0.0000
     53 H           2.1898   -2.3998   -1.9204 H       1  UNL1        0.0000
     54 H          -0.9329    1.9988   -0.9030 H       1  UNL1        0.0000
     55 H           1.0399   -1.4028   -1.3292 H       1  UNL1        0.0000
     56 H           3.1236    2.0940    0.0753 H       1  UNL1        0.0000
     57 H           2.2063   -1.2935   -3.1912 H       1  UNL1        0.0000
     58 H          -3.7111   -0.5689   -2.2942 H       1  UNL1        0.0000
     59 H           1.5064   -0.4320    2.2746 H       1  UNL1        0.0000
     60 H          -2.6398    2.1717    1.7743 H       1  UNL1        0.0000
     61 H           3.3951    2.2317   -1.9481 H       1  UNL1        0.0000
     62 H           2.6913    3.0857   -0.9898 H       1  UNL1        0.0000
     63 H          -0.1592    0.8676    3.0957 H       1  UNL1        0.0000
     64 H           0.8856   -3.9278    1.2826 H       1  UNL1        0.0000
     65 H          -2.3815   -3.2759    0.9847 H       1  UNL1        0.0000
     66 H          -1.6002    1.4517    2.6215 H       1  UNL1        0.0000
     67 H           2.8918    1.6262    1.7766 H       1  UNL1        0.0000
     68 EU          0.5437    2.5513   -2.1900 Eu      1  UNL1        0.0000
@<TRIPOS>BOND
     1     1     2    2
     2     2     3   am
     3     3     4    1
     4     3     5    1
     5     5     6    1
     6     6     7    1
     7     2     8    1
     8     8     9   ar
     9     9    10   ar
    10     8    11   ar
    11    11    12   ar
    12    12    13   ar
    13    10    13   ar
    14    13    14   ar
    15    14    15   ar
    16    15    16   ar
    17    16    17   ar
    18    12    17   ar
    19    17    18   ar
    20    18    19   ar
    21    19    20    1
    22    20    21   ar
    23    21    22   ar
    24    22    23    1
    25    23    24    1
    26    23    25    1
    27    23    26    1
    28    26    27    1
    29    27    28    1
    30    28    29    1
    31    28    30    1
    32    22    31   ar
    33    28    31    1
    34    31    32   ar
    35    32    33   ar
    36    20    33   ar
    37    19    34   ar
    38    34    35   ar
    39    16    35   ar
    40     4    36    1
    41     4    37    1
    42     4    38    1
    43     5    39    1
    44     5    40    1
    45     6    41    1
    46     6    42    1
    47     7    43    1
    48     7    44    1
    49     7    45    1
    50     9    46    1
    51    10    47    1
    52    14    48    1
    53    15    49    1
    54    24    50    1
    55    24    51    1
    56    24    52    1
    57    25    53    1
    58    25    54    1
    59    25    55    1
    60    26    56    1
    61    26    57    1
    62    27    58    1
    63    27    59    1
    64    29    60    1
    65    29    61    1
    66    29    62    1
    67    30    63    1
    68    30    64    1
    69    30    65    1
    70    34    66    1
    71    35    67    1
    72    68     1    1
    73    68    33    1
    74    68    18    1
    75    68    11    1
@<TRIPOS>MOLECULE
*****
 68 75 0 0 0
SMALL
GASTEIGER

@<TRIPOS>ATOM
      1 O          -2.3122    0.7690   -2.2460 O.2     1  UNL1        0.0000
      2 C          -2.0888    0.3739   -1.5467 C.2     1  UNL1        0.0000
      3 N          -2.2550   -1.7696    1.9911 N.am    1  UNL1        0.0000
      4 C          -3.3187   -1.7857    2.6954 C.3     1  UNL1        0.0000
      5 C          -0.2262   -3.0606    2.7498 C.3     1  UNL1        0.0000
      6 C           1.0440   -2.3065    1.9768 C.3     1  UNL1        0.0000
      7 C          -0.3512   -1.9618   -2.1011 C.3     1  UNL1        0.0000
      8 C           0.8266    2.2510   -1.4041 C.ar    1  UNL1        0.0000
      9 C           1.7708    1.2773   -1.2292 C.ar    1  UNL1        0.0000
     10 C           0.3088   -1.2174   -3.8884 C.ar    1  UNL1        0.0000
     11 N           0.8143    2.6172   -2.1545 N.ar    1  UNL1        0.0000
     12 C           1.7025    0.9426   -3.2140 C.ar    1  UNL1        0.0000
     13 C           0.6770   -1.3354   -3.9964 C.ar    1  UNL1        0.0000
     14 C           1.1039   -3.8540   -1.4226 C.ar    1  UNL1        0.0000
     15 C           1.4627   -2.6694    0.0322 C.ar    1  UNL1        0.0000
     16 C           2.2632   -1.4578   -0.0448 C.ar    1  UNL1        0.0000
     17 C           3.0994   -0.3090   -0.5696 C.ar    1  UNL1        0.0000
     18 N           2.5913    0.5702    0.4095 N.ar    1  UNL1        0.0000
     19 C          -0.0406   -0.4790    1.4534 C.ar    1  UNL1        0.0000
     20 C          -0.9098   -0.1418    1.9360 C.ar    1  UNL1        0.0000
     21 N          -2.8804   -1.0316    0.4667 N.ar    1  UNL1        0.0000
     22 C          -3.1070   -0.8960   -0.3430 C.ar    1  UNL1        0.0000
     23 C          -1.9105   -1.5559   -0.8408 C.3     1  UNL1        0.0000
     24 C          -0.1310    0.0795   -1.4519 C.3     1  UNL1        0.0000
     25 C           0.0415   -0.1140   -1.0893 C.3     1  UNL1        0.0000
     26 C           0.0633    0.2084   -0.9215 C.3     1  UNL1        0.0000
     27 C          -1.7152    0.8008    0.3787 C.3     1  UNL1        0.0000
     28 C          -0.1777    1.4136    0.6171 C.3     1  UNL1        0.0000
     29 C           0.8068    2.4296    0.6622 C.3     1  UNL1        0.0000
     30 C          -0.6976   -2.4421    0.9274 C.3     1  UNL1        0.0000
     31 C          -2.6464    1.7917   -0.1500 C.ar    1  UNL1        0.0000
     32 N          -2.5672    3.1739    0.1615 N.ar    1  UNL1        0.0000
     33 N          -1.3299    2.9626    0.8760 N.ar    1  UNL1        0.0000
     34 C          -0.0820   -0.4564    1.3656 C.ar    1  UNL1        0.0000
     35 C           1.3767   -0.8023    0.4864 C.ar    1  UNL1        0.0000
     36 H          -3.1868   -0.9427    2.7855 H       1  UNL1        0.0000
     37 H          -1.9985   -3.4011    3.4454 H       1  UNL1        0.0000
     38 H          -1.9095   -0.4613    3.5160 H       1  UNL1        0.0000
     39 H           2.1575   -4.3980    0.4376 H       1  UNL1        0.0000
     40 H          -1.1894   -1.9013    2.7296 H       1  UNL1        0.0000
     41 H           2.8094   -1.8243    2.6770 H       1  UNL1        0.0000
     42 H          -0.8967   -3.5184   -0.4819 H       1  UNL1        0.0000
     43 H          -0.4955    0.6667   -3.1828 H       1  UNL1        0.0000
     44 H           1.9240   -0.4610   -2.0215 H       1  UNL1        0.0000
     45 H          -0.0358   -2.6083   -1.9494 H       1  UNL1        0.0000
     46 H           1.4769    0.9679    1.5836 H       1  UNL1        0.0000
     47 H          -0.3153   -2.5717   -4.1632 H       1  UNL1        0.0000
     48 H           2.2029   -4.3531   -1.4634 H       1  UNL1        0.0000
     49 H           1.1402   -2.5830    3.7784 H       1  UNL1        0.0000
     50 H          -1.1705   -1.3344   -0.3859 H       1  UNL1        0.0000
     51 H          -1.1107   -1.4620   -0.4992 H       1  UNL1        0.0000
     52 H          -1.7830    2.1531   -3.0965 H       1  UNL1        0.0000
     53 H           2.1898   -2.3998   -1.9204 H       1  UNL1        0.0000
     54 H          -0.9329    1.9988   -0.9030 H       1  UNL1        0.0000
     55 H           1.0399   -1.4028   -1.3292 H       1  UNL1        0.0000
     56 H           3.1236    2.0940    0.0753 H       1  UNL1        0.0000
     57 H           2.2063   -1.2935   -3.1912 H       1  UNL1        0.0000
     58 H          -3.7111   -0.5689   -2.2942 H       1  UNL1        0.0000
     59 H           1.5064   -0.4320    2.2746 H       1  UNL1        0.0000
     60 H          -2.6398    2.1717    1.7743 H       1  UNL1        0.0000
     61 H           3.3951    2.2317   -1.9481 H       1  UNL1        0.0000
     62 H           2.6913    3.0857   -0.9898 H       1  UNL1        0.0000
     63 H          -0.1592    0.8676    3.0957 H       1  UNL1        0.0000
     64 H           0.8856   -3.9278    1.2826 H       1  UNL1        0.0000
     65 H          -2.3815   -3.2759    0.9847 H       1  UNL1        0.0000
     66 H          -1.6002    1.4517    2.6215 H       1  UNL1        0.0000
     67 H           2.8918    1.6262    1.7766 H       1  UNL1        0.0000
     68 EU          0.5437    2.5513   -2.1900 Eu      1  UNL1        0.0000
@<TRIPOS>BOND
     1     1     2    2
     2     2     3   am
     3     3     4    1
     4     3     5    1
     5     5     6    1
     6     6     7    1
     7     2     8    1
     8     8     9   ar
     9     9    10   ar
    10     8    11   ar
    11    11    12   ar
    12    12    13   ar
    13    10    13   ar
    14    13    14   ar
    15    14    15   ar
    16    15    16   ar
    17    16    17   ar
    18    12    17   ar
    19    17    18   ar
    20    18    19   ar
    21    19    20    1
    22    20    21   ar
    23    21    22   ar
    24    22    23    1
    25    23    24    1
    26    23    25    1
    27    23    26    1
    28    26    27    1
    29    27    28    1
    30    28    29    1
    31    28    30    1
    32    22    31   ar
    33    28    31    1
    34    31    32   ar
    35    32    33   ar
    36    20    33   ar
    37    19    34   ar
    38    34    35   ar
    39    16    35   ar
    40     4    36    1
    41     4    37    1
    42     4    38    1
    43     5    39    1
    44     5    40    1
    45     6    41    1
    46     6    42    1
    47     7    43    1
    48     7    44    1
    49     7    45    1
    50     9    46    1
    51    10    47    1
    52    14    48    1
    53    15    49    1
    54    24    50    1
    55    24    51    1
    56    24    52    1
    57    25    53    1
    58    25    54    1
    59    25    55    1
    60    26    56    1
    61    26    57    1
    62    27    58    1
    63    27    59    1
    64    29    60    1
    65    29    61    1
    66    29    62    1
    67    30    63    1
    68    30    64    1
    69    30    65    1
    70    34    66    1
    71    35    67    1
    72    68     1    1
    73    68    33    1
    74    68    18    1
    75    68    11    1
@<TRIPOS>MOLECULE
*****
 68 75 0 0 0
SMALL
GASTEIGER

@<TRIPOS>ATOM
      1 O          -2.3122    0.7690   -2.2460 O.2     1  UNL1        0.0000
      2 C          -2.0888    0.3739   -1.5467 C.2     1  UNL1        0.0000
      3 N          -2.2550   -1.7696    1.9911 N.am    1  UNL1        0.0000
      4 C          -3.3187   -1.7857    2.6954 C.3     1  UNL1        0.0000
      5 C          -0.2262   -3.0606    2.7498 C.3     1  UNL1        0.0000
      6 C           1.0440   -2.3065    1.9768 C.3     1  UNL1        0.0000
      7 C          -0.3512   -1.9618   -2.1011 C.3     1  UNL1        0.0000
      8 C           0.8266    2.2510   -1.4041 C.ar    1  UNL1        0.0000
      9 C           1.7708    1.2773   -1.2292 C.ar    1  UNL1        0.0000
     10 C           0.3088   -1.2174   -3.8884 C.ar    1  UNL1        0.0000
     11 N           0.8143    2.6172   -2.1545 N.ar    1  UNL1        0.0000
     12 C           1.7025    0.9426   -3.2140 C.ar    1  UNL1        0.0000
     13 C           0.6770   -1.3354   -3.9964 C.ar    1  UNL1        0.0000
     14 C           1.1039   -3.8540   -1.4226 C.ar    1  UNL1        0.0000
     15 C           1.4627   -2.6694    0.0322 C.ar    1  UNL1        0.0000
     16 C           2.2632   -1.4578   -0.0448 C.ar    1  UNL1        0.0000
     17 C           3.0994   -0.3090   -0.5696 C.ar    1  UNL1        0.0000
     18 N           2.5913    0.5702    0.4095 N.ar    1  UNL1        0.0000
     19 C          -0.0406   -0.4790    1.4534 C.ar    1  UNL1        0.0000
     20 C          -0.9098   -0.1418    1.9360 C.ar    1  UNL1        0.0000
     21 N          -2.8804   -1.0316    0.4667 N.ar    1  UNL1        0.0000
     22 C          -3.1070   -0.8960   -0.3430 C.ar    1  UNL1        0.0000
     23 C          -1.9105   -1.5559   -0.8408 C.3     1  UNL1        0.0000
     24 C          -0.1310    0.0795   -1.4519 C.3     1  UNL1        0.0000
     25 C           0.0415   -0.1140   -1.0893 C.3     1  UNL1        0.0000
     26 C           0.0633    0.2084   -0.9215 C.3     1  UNL1        0.0000
     27 C          -1.7152    0.8008    0.3787 C.3     1  UNL1        0.0000
     28 C          -0.1777    1.4136    0.6171 C.3     1  UNL1        0.0000
     29 C           0.8068    2.4296    0.6622 C.3     1  UNL1        0.0000
     30 C          -0.6976   -2.4421    0.9274 C.3     1  UNL1        0.0000
     31 C          -2.6464    1.7917   -0.1500 C.ar    1  UNL1        0.0000
     32 N          -2.5672    3.1739    0.1615 N.ar    1  UNL1        0.0000
     33 N          -1.3299    2.9626    0.8760 N.ar    1  UNL1        0.0000
     34 C          -0.0820   -0.4564    1.3656 C.ar    1  UNL1        0.0000
     35 C           1.3767   -0.8023    0.4864 C.ar    1  UNL1        0.0000
     36 H          -3.1868   -0.9427    2.7855 H       1  UNL1        0.0000
     37 H          -1.9985   -3.4011    3.4454 H       1  UNL1        0.0000
     38 H          -1.9095   -0.4613    3.5160 H       1  UNL1        0.0000
     39 H           2.1575   -4.3980    0.4376 H       1  UNL1        0.0000
     40 H          -1.1894   -1.9013    2.7296 H       1  UNL1        0.0000
     41 H           2.8094   -1.8243    2.6770 H       1  UNL1        0.0000
     42 H          -0.8967   -3.5184   -0.4819 H       1  UNL1        0.0000
     43 H          -0.4955    0.6667   -3.1828 H       1  UNL1        0.0000
     44 H           1.9240   -0.4610   -2.0215 H       1  UNL1        0.0000
     45 H          -0.0358   -2.6083   -1.9494 H       1  UNL1        0.0000
     46 H           1.4769    0.9679    1.5836 H       1  UNL1        0.0000
     47 H          -0.3153   -2.5717   -4.1632 H       1  UNL1        0.0000
     48 H           2.2029   -4.3531   -1.4634 H       1  UNL1        0.0000
     49 H           1.1402   -2.5830    3.7784 H       1  UNL1        0.0000
     50 H          -1.1705   -1.3344   -0.3859 H       1  UNL1        0.0000
     51 H          -1.1107   -1.4620   -0.4992 H       1  UNL1        0.0000
     52 H          -1.7830    2.1531   -3.0965 H       1  UNL1        0.0000
     53 H           2.1898   -2.3998   -1.9204 H       1  UNL1        0.0000
     54 H          -0.9329    1.9988   -0.9030 H       1  UNL1        0.0000
     55 H           1.0399   -1.4028   -1.3292 H       1  UNL1        0.0000
     56 H           3.1236    2.0940    0.0753 H       1  UNL1        0.0000
     57 H           2.2063   -1.2935   -3.1912 H       1  UNL1        0.0000
     58 H          -3.7111   -0.5689   -2.2942 H       1  UNL1        0.0000
     59 H           1.5064   -0.4320    2.2746 H       1  UNL1        0.0000
     60 H          -2.6398    2.1717    1.7743 H       1  UNL1        0.0000
     61 H           3.3951    2.2317   -1.9481 H       1  UNL1        0.0000
     62 H           2.6913    3.0857   -0.9898 H       1  UNL1        0.0000
     63 H          -0.1592    0.8676    3.0957 H       1  UNL1        0.0000
     64 H           0.8856   -3.9278    1.2826 H       1  UNL1        0.0000
     65 H          -2.3815   -3.2759    0.9847 H       1  UNL1        0.0000
     66 H          -1.6002    1.4517    2.6215 H       1  UNL1        0.0000
     67 H           2.8918    1.6262    1.7766 H       1  UNL1        0.0000
     68 EU          0.5437    2.5513   -2.1900 Eu      1  UNL1        0.0000
@<TRIPOS>BOND
     1     1     2    2
     2     2     3   am
     3     3     4    1
     4     3     5    1
     5     5     6    1
     6     6     7    1
     7     2     8    1
     8     8     9   ar
     9     9    10   ar
    10     8    11   ar
    11    11    12   ar
    12    12    13   ar
    13    10    13   ar
    14    13    14   ar
    15    14    15   ar
    16    15    16   ar
    17    16    17   ar
    18    12    17   ar
    19    17    18   ar
    20    18    19   ar
    21    19    20    1
    22    20    21   ar
    23    21    22   ar
    24    22    23    1
    25    23    24    1
    26    23    25    1
    27    23    26    1
    28    26    27    1
    29    27    28    1
    30    28    29    1
    31    28    30    1
    32    22    31   ar
    33    28    31    1
    34    31    32   ar
    35    32    33   ar
    36    20    33   ar
    37    19    34   ar
    38    34    35   ar
    39    16    35   ar
    40     4    36    1
    41     4    37    1
    42     4    38    1
    43     5    39    1
    44     5    40    1
    45     6    41    1
    46     6    42    1
    47     7    43    1
    48     7    44    1
    49     7    45    1
    50     9    46    1
    51    10    47    1
    52    14    48    1
    53    15    49    1
    54    24    50    1
    55    24    51    1
    56    24    52    1
    57    25    53    1
    58    25    54    1
    59    25    55    1
    60    26    56    1
    61    26    57    1
    62    27    58    1
    63    27    59    1
    64    29    60    1
    65    29    61    1
    66    29    62    1
    67    30    63    1
    68    30    64    1
    69    30    65    1
    70    34    66    1
    71    35    67    1
    72    68     1    1
    73    68    33    1
    74    68    18    1
    75    68    11    1
@<TRIPOS>MOLECULE
*****
 68 75 0 0 0
SMALL
GASTEIGER

@<TRIPOS>ATOM
      1 O          -2.3122    0.7690   -2.2460 O.2     1  UNL1        0.0000
      2 C          -2.0888    0.3739   -1.5467 C.2     1  UNL1        0.0000
      3 N          -2.2550   -1.7696    1.9911 N.am    1  UNL1        0.0000
      4 C          -3.3187   -1.7857    2.6954 C.3     1  UNL1        0.0000
      5 C          -0.2262   -3.0606    2.7498 C.3     1  UNL1        0.0000
      6 C           1.0440   -2.3065    1.9768 C.3     1  UNL1        0.0000
      7 C          -0.3512   -1.9618   -2.1011 C.3     1  UNL1        0.0000
      8 C           0.8266    2.2510   -1.4041 C.ar    1  UNL1        0.0000
      9 C           1.7708    1.2773   -1.2292 C.ar    1  UNL1        0.0000
     10 C           0.3088   -1.2174   -3.8884 C.ar    1  UNL1        0.0000
     11 N           0.8143    2.6172   -2.1545 N.ar    1  UNL1        0.0000
     12 C           1.7025    0.9426   -3.2140 C.ar    1  UNL1        0.0000
     13 C           0.6770   -1.3354   -3.9964 C.ar    1  UNL1        0.0000
     14 C           1.1039   -3.8540   -1.4226 C.ar    1  UNL1        0.0000
     15 C           1.4627   -2.6694    0.0322 C.ar    1  UNL1        0.0000
     16 C           2.2632   -1.4578   -0.0448 C.ar    1  UNL1        0.0000
     17 C           3.0994   -0.3090   -0.5696 C.ar    1  UNL1        0.0000
     18 N           2.5913    0.5702    0.4095 N.ar    1  UNL1        0.0000
     19 C          -0.0406   -0.4790    1.4534 C.ar    1  UNL1        0.0000
     20 C          -0.9098   -0.1418    1.9360 C.ar    1  UNL1        0.0000
     21 N          -2.8804   -1.0316    0.4667 N.ar    1  UNL1        0.0000
     22 C          -3.1070   -0.8960   -0.3430 C.ar    1  UNL1        0.0000
     23 C          -1.9105   -1.5559   -0.8408 C.3     1  UNL1        0.0000
     24 C          -0.1310    0.0795   -1.4519 C.3     1  UNL1        0.0000
     25 C           0.0415   -0.1140   -1.0893 C.3     1  UNL1        0.0000
     26 C           0.0633    0.2084   -0.9215 C.3     1  UNL1        0.0000
     27 C          -1.7152    0.8008    0.3787 C.3     1  UNL1        0.0000
     28 C          -0.1777    1.4136    0.6171 C.3     1  UNL1        0.0000
     29 C           0.8068    2.4296    0.6622 C.3     1  UNL1        0.0000
     30 C          -0.6976   -2.4421    0.9274 C.3     1  UNL1        0.0000
     31 C          -2.6464    1.7917   -0.1500 C.ar    1  UNL1        0.0000
     32 N          -2.5672    3.1739    0.1615 N.ar    1  UNL1        0.0000
     33 N          -1.3299    2.9626    0.8760 N.ar    1  UNL1        0.0000
     34 C          -0.0820   -0.4564    1.3656 C.ar    1  UNL1        0.0000
     35 C           1.3767   -0.8023    0.4864 C.ar    1  UNL1        0.0000
     36 H          -3.1868   -0.9427    2.7855 H       1  UNL1        0.0000
     37 H          -1.9985   -3.4011    3.4454 H       1  UNL1        0.0000
     38 H          -1.9095   -0.4613    3.5160 H       1  UNL1        0.0000
     39 H           2.1575   -4.3980    0.4376 H       1  UNL1        0.0000
     40 H          -1.1894   -1.9013    2.7296 H       1  UNL1        0.0000
     41 H           2.8094   -1.8243    2.6770 H       1  UNL1        0.0000
     42 H          -0.8967   -3.5184   -0.4819 H       1  UNL1        0.0000
     43 H          -0.4955    0.6667   -3.1828 H       1  UNL1        0.0000
     44 H           1.9240   -0.4610   -2.0215 H       1  UNL1        0.0000
     45 H          -0.0358   -2.6083   -1.9494 H       1  UNL1        0.0000
     46 H           1.4769    0.9679    1.5836 H       1  UNL1        0.0000
     47 H          -0.3153   -2.5717   -4.1632 H       1  UNL1        0.0000
     48 H           2.2029   -4.3531   -1.4634 H       1  UNL1        0.0000
     49 H           1.1402   -2.5830    3.7784 H       1  UNL1        0.0000
     50 H          -1.1705   -1.3344   -0.3859 H       1  UNL1        0.0000
     51 H          -1.1107   -1.4620   -0.4992 H       1  UNL1        0.0000
     52 H          -1.7830    2.1531   -3.0965 H       1  UNL1        0.0000
     53 H           2.1898   -2.3998   -1.9204 H       1  UNL1        0.0000
     54 H          -0.9329    1.9988   -0.9030 H       1  UNL1        0.0000
     55 H           1.0399   -1.4028   -1.3292 H       1  UNL1        0.0000
     56 H           3.1236    2.0940    0.0753 H       1  UNL1        0.0000
     57 H           2.2063   -1.2935   -3.1912 H       1  UNL1        0.0000
     58 H          -3.7111   -0.5689   -2.2942 H       1  UNL1        0.0000
     59 H           1.5064   -0.4320    2.2746 H       1  UNL1        0.0000
     60 H          -2.6398    2.1717    1.7743 H       1  UNL1        0.0000
     61 H           3.3951    2.2317   -1.9481 H       1  UNL1        0.0000
     62 H           2.6913    3.0857   -0.9898 H       1  UNL1        0.0000
     63 H          -0.1592    0.8676    3.0957 H       1  UNL1        0.0000
     64 H           0.8856   -3.9278    1.2826 H       1  UNL1        0.0000
     65 H          -2.3815   -3.2759    0.9847 H       1  UNL1        0.0000
     66 H          -1.6002    1.4517    2.6215 H       1  UNL1        0.0000
     67 H           2.8918    1.6262    1.7766 H       1  UNL1        0.0000
     68 EU          0.5437    2.5513   -2.1900 Eu      1  UNL1        0.0000
@<TRIPOS>BOND
     1     1     2    2
     2     2     3   am
     3     3     4    1
     4     3     5    1
     5     5     6    1
     6     6     7    1
     7     2     8    1
     8     8     9   ar
     9     9    10   ar
    10     8    11   ar
    11    11    12   ar
    12    12    13   ar
    13    10    13   ar
    14    13    14   ar
    15    14    15   ar
    16    15    16   ar
    17    16    17   ar
    18    12    17   ar
    19    17    18   ar
    20    18    19   ar
    21    19    20    1
    22    20    21   ar
    23    21    22   ar
    24    22    23    1
    25    23    24    1
    26    23    25    1
    27    23    26    1
    28    26    27    1
    29    27    28    1
    30    28    29    1
    31    28    30    1
    32    22    31   ar
    33    28    31    1
    34    31    32   ar
    35    32    33   ar
    36    20    33   ar
    37    19    34   ar
    38    34    35   ar
    39    16    35   ar
    40     4    36    1
    41     4    37    1
    42     4    38    1
    43     5    39    1
    44     5    40    1
    45     6    41    1
    46     6    42    1
    47     7    43    1
    48     7    44    1
    49     7    45    1
    50     9    46    1
    51    10    47    1
    52    14    48    1
    53    15    49    1
    54    24    50    1
    55    24    51    1
    56    24    52    1
    57    25    53    1
    58    25    54    1
    59    25    55    1
    60    26    56    1
    61    26    57    1
    62    27    58    1
    63    27    59    1
    64    29    60    1
    65    29    61    1
    66    29    62    1
    67    30    63    1
    68    30    64    1
    69    30    65    1
    70    34    66    1
    71    35    67    1
    72    68     1    1
    73    68    33    1
    74    68    18    1
    75    68    11    1
@<TRIPOS>MOLECULE
*****
 68 75 0 0 0
SMALL
GASTEIGER

@<TRIPOS>ATOM
      1 O          -2.3122    0.7690   -2.2460 O.2     1  UNL1        0.0000
      2 C          -2.0888    0.3739   -1.5467 C.2     1  UNL1        0.0000
      3 N          -2.2550   -1.7696    1.9911 N.am    1  UNL1        0.0000
      4 C          -3.3187   -1.7857    2.6954 C.3     1  UNL1        0.0000
      5 C          -0.2262   -3.0606    2.7498 C.3     1  UNL1        0.0000
      6 C           1.0440   -2.3065    1.9768 C.3     1  UNL1        0.0000
      7 C          -0.3512   -1.9618   -2.1011 C.3     1  UNL1        0.0000
      8 C           0.8266    2.2510   -1.4041 C.ar    1  UNL1        0.0000
      9 C           1.7708    1.2773   -1.2292 C.ar    1  UNL1        0.0000
     10 C           0.3088   -1.2174   -3.8884 C.ar    1  UNL1        0.0000
     11 N           0.8143    2.6172   -2.1545 N.ar    1  UNL1        0.0000
     12 C           1.7025    0.9426   -3.2140 C.ar    1  UNL1        0.0000
     13 C           0.6770   -1.3354   -3.9964 C.ar    1  UNL1        0.0000
     14 C           1.1039   -3.8540   -1.4226 C.ar    1  UNL1        0.0000
     15 C           1.4627   -2.6694    0.0322 C.ar    1  UNL1        0.0000
     16 C           2.2632   -1.4578   -0.0448 C.ar    1  UNL1        0.0000
     17 C           3.0994   -0.3090   -0.5696 C.ar    1  UNL1        0.0000
     18 N           2.5913    0.5702    0.4095 N.ar    1  UNL1        0.0000
     19 C          -0.0406   -0.4790    1.4534 C.ar    1  UNL1        0.0000
     20 C          -0.9098   -0.1418    1.9360 C.ar    1  UNL1        0.0000
     21 N          -2.8804   -1.0316    0.4667 N.ar    1  UNL1        0.0000
     22 C          -3.1070   -0.8960   -0.3430 C.ar    1  UNL1        0.0000
     23 C          -1.9105   -1.5559   -0.8408 C.3     1  UNL1        0.0000
     24 C          -0.1310    0.0795   -1.4519 C.3     1  UNL1        0.0000
     25 C           0.0415   -0.1140   -1.0893 C.3     1  UNL1        0.0000
     26 C           0.0633    0.2084   -0.9215 C.3     1  UNL1        0.0000
     27 C          -1.7152    0.8008    0.3787 C.3     1  UNL1        0.0000
     28 C          -0.1777    1.4136    0.6171 C.3     1  UNL1        0.0000
     29 C           0.8068    2.4296    0.6622 C.3     1  UNL1        0.0000
     30 C          -0.6976   -2.4421    0.9274 C.3     1  UNL1        0.0000
     31 C          -2.6464    1.7917   -0.1500 C.ar    1  UNL1        0.0000
     32 N          -2.5672    3.1739    0.1615 N.ar    1  UNL1        0.0000
     33 N          -1.3299    2.9626    0.8760 N.ar    1  UNL1        0.0000
     34 C          -0.0820   -0.4564    1.3656 C.ar    1  UNL1        0.0000
     35 C           1.3767   -0.8023    0.4864 C.ar    1  UNL1        0.0000
     36 H          -3.1868   -0.9427    2.7855 H       1  UNL1        0.0000
     37 H          -1.9985   -3.4011    3.4454 H       1  UNL1        0.0000
     38 H          -1.9095   -0.4613    3.5160 H       1  UNL1        0.0000
     39 H           2.1575   -4.3980    0.4376 H       1  UNL1        0.0000
     40 H          -1.1894   -1.9013    2.7296 H       1  UNL1        0.0000
     41 H           2.8094   -1.8243    2.6770 H       1  UNL1        0.0000
     42 H          -0.8967   -3.5184   -0.4819 H       1  UNL1        0.0000
     43 H          -0.4955    0.6667   -3.1828 H       1  UNL1        0.0000
     44 H           1.9240   -0.4610   -2.0215 H       1  UNL1        0.0000
     45 H          -0.0358   -2.6083   -1.9494 H       1  UNL1        0.0000
     46 H           1.4769    0.9679    1.5836 H       1  UNL1        0.0000
     47 H          -0.3153   -2.5717   -4.1632 H       1  UNL1        0.0000
     48 H           2.2029   -4.3531   -1.4634 H       1  UNL1        0.0000
     49 H           1.1402   -2.5830    3.7784 H       1  UNL1        0.0000
     50 H          -1.1705   -1.3344   -0.3859 H       1  UNL1        0.0000
     51 H          -1.1107   -1.4620   -0.4992 H       1  UNL1        0.0000
     52 H          -1.7830    2.1531   -3.0965 H       1  UNL1        0.0000
     53 H           2.1898   -2.3998   -1.9204 H       1  UNL1        0.0000
     54 H          -0.9329    1.9988   -0.9030 H       1  UNL1        0.0000
     55 H           1.0399   -1.4028   -1.3292 H       1  UNL1        0.0000
     56 H           3.1236    2.0940    0.0753 H       1  UNL1        0.0000
     57 H           2.2063   -1.2935   -3.1912 H       1  UNL1        0.0000
     58 H          -3.7111   -0.5689   -2.2942 H       1  UNL1        0.0000
     59 H           1.5064   -0.4320    2.2746 H       1  UNL1        0.0000
     60 H          -2.6398    2.1717    1.7743 H       1  UNL1        0.0000
     61 H           3.3951    2.2317   -1.9481 H       1  UNL1        0.0000
     62 H           2.6913    3.0857   -0.9898 H       1  UNL1        0.0000
     63 H          -0.1592    0.8676    3.0957 H       1  UNL1        0.0000
     64 H           0.8856   -3.9278    1.2826 H       1  UNL1        0.0000
     65 H          -2.3815   -3.2759    0.9847 H       1  UNL1        0.0000
     66 H          -1.6002    1.4517    2.6215 H       1  UNL1        0.0000
     67 H           2.8918    1.6262    1.7766 H       1  UNL1        0.0000
     68 EU          0.5437    2.5513   -2.1900 Eu      1  UNL1        0.0000
@<TRIPOS>BOND
     1     1     2    2
     2     2     3   am
     3     3     4    1
     4     3     5    1
     5     5     6    1
     6     6     7    1
     7     2     8    1
     8     8     9   ar
     9     9    10   ar
    10     8    11   ar
    11    11    12   ar
    12    12    13   ar
    13    10    13   ar
    14    13    14   ar
    15    14    15   ar
    16    15    16   ar
    17    16    17   ar
    18    12    17   ar
    19    17    18   ar
    20    18    19   ar
    21    19    20    1
    22    20    21   ar
    23    21    22   ar
    24    22    23    1
    25    23    24    1
    26    23    25    1
    27    23    26    1
    28    26    27    1
    29    27    28    1
    30    28    29    1
    31    28    30    1
    32    22    31   ar
    33    28    31    1
    34    31    32   ar
    35    32    33   ar
    36    20    33   ar
    37    19    34   ar
    38    34    35   ar
    39    16    35   ar
    40     4    36    1
    41     4    37    1
    42     4    38    1
    43     5    39    1
    44     5    40    1
    45     6    41    1
    46     6    42    1
    47     7    43    1
    48     7    44    1
    49     7    45    1
    50     9    46    1
    51    10    47    1
    52    14    48    1
    53    15    49    1
    54    24    50    1
    55    24    51    1
    56    24    52    1
    57    25    53    1
    58    25    54    1
    59    25    55    1
    60    26    56    1
    61    26    57    1
    62    27    58    1
    63    27    59    1
    64    29    60    1
    65    29    61    1
    66    29    62    1
    67    30    63    1
    68    30    64    1
    69    30    65    1
    70    34    66    1
    71    35    67    1
    72    68     1    1
    73    68    33    1
    74    68    18    1
    75    68    11    1
@<TRIPOS>MOLECULE
*****
 68 75 0 0 0
SMALL
GASTEIGER

@<TRIPOS>ATOM
      1 O          -2.3122    0.7690   -2.2460 O.2     1  UNL1        0.0000
      2 C          -2.0888    0.3739   -1.5467 C.2     1  UNL1        0.0000
      3 N          -2.2550   -1.7696    1.9911 N.am    1  UNL1        0.0000
      4 C          -3.3187   -1.7857    2.6954 C.3     1  UNL1        0.0000
      5 C          -0.2262   -3.0606    2.7498 C.3     1  UNL1        0.0000
      6 C           1.0440   -2.3065    1.9768 C.3     1  UNL1        0.0000
      7 C          -0.3512   -1.9618   -2.1011 C.3     1  UNL1        0.0000
      8 C           0.8266    2.2510   -1.4041 C.ar    1  UNL1        0.0000
      9 C           1.7708    1.2773   -1.2292 C.ar    1  UNL1        0.0000
     10 C           0.3088   -1.2174   -3.8884 C.ar    1  UNL1        0.0000
     11 N           0.8143    2.6172   -2.1545 N.ar    1  UNL1        0.0000
     12 C           1.7025    0.9426   -3.2140 C.ar    1  UNL1        0.0000
     13 C           0.6770   -1.3354   -3.9964 C.ar    1  UNL1        0.0000
     14 C           1.1039   -3.8540   -1.4226 C.ar    1  UNL1        0.0000
     15 C           1.4627   -2.6694    0.0322 C.ar    1  UNL1        0.0000
     16 C           2.2632   -1.4578   -0.0448 C.ar    1  UNL1        0.0000
     17 C           3.0994   -0.3090   -0.5696 C.ar    1  UNL1        0.0000
     18 N           2.5913    0.5702    0.4095 N.ar    1  UNL1        0.0000
     19 C          -0.0406   -0.4790    1.4534 C.ar    1  UNL1        0.0000
     20 C          -0.9098   -0.1418    1.9360 C.ar    1  UNL1        0.0000
     21 N          -2.8804   -1.0316    0.4667 N.ar    1  UNL1        0.0000
     22 C          -3.1070   -0.8960   -0.3430 C.ar    1  UNL1        0.0000
     23 C          -1.9105   -1.5559   -0.8408 C.3     1  UNL1        0.0000
     24 C          -0.1310    0.0795   -1.4519 C.3     1  UNL1        0.0000
     25 C           0.0415   -0.1140   -1.0893 C.3     1  UNL1        0.0000
     26 C           0.0633    0.2084   -0.9215 C.3     1  UNL1        0.0000
     27 C          -1.7152    0.8008    0.3787 C.3     1  UNL1        0.0000
     28 C          -0.1777    1.4136    0.6171 C.3     1  UNL1        0.0000
     29 C           0.8068    2.4296    0.6622 C.3     1  UNL1        0.0000
     30 C          -0.6976   -2.4421    0.9274 C.3     1  UNL1        0.0000
     31 C          -2.6464    1.7917   -0.1500 C.ar    1  UNL1        0.0000
     32 N          -2.5672    3.1739    0.1615 N.ar    1  UNL1        0.0000
     33 N          -1.3299    2.9626    0.8760 N.ar    1  UNL1        0.0000
     34 C          -0.0820   -0.4564    1.3656 C.ar    1  UNL1        0.0000
     35 C           1.3767   -0.8023    0.4864 C.ar    1  UNL1        0.0000
     36 H          -3.1868   -0.9427    2.7855 H       1  UNL1        0.0000
     37 H          -1.9985   -3.4011    3.4454 H       1  UNL1        0.0000
     38 H          -1.9095   -0.4613    3.5160 H       1  UNL1        0.0000
     39 H           2.1575   -4.3980    0.4376 H       1  UNL1        0.0000
     40 H          -1.1894   -1.9013    2.7296 H       1  UNL1        0.0000
     41 H           2.8094   -1.8243    2.6770 H       1  UNL1        0.0000
     42 H          -0.8967   -3.5184   -0.4819 H       1  UNL1        0.0000
     43 H          -0.4955    0.6667   -3.1828 H       1  UNL1        0.0000
     44 H           1.9240   -0.4610   -2.0215 H       1  UNL1        0.0000
     45 H          -0.0358   -2.6083   -1.9494 H       1  UNL1        0.0000
     46 H           1.4769    0.9679    1.5836 H       1  UNL1        0.0000
     47 H          -0.3153   -2.5717   -4.1632 H       1  UNL1        0.0000
     48 H           2.2029   -4.3531   -1.4634 H       1  UNL1        0.0000
     49 H           1.1402   -2.5830    3.7784 H       1  UNL1        0.0000
     50 H          -1.1705   -1.3344   -0.3859 H       1  UNL1        0.0000
     51 H          -1.1107   -1.4620   -0.4992 H       1  UNL1        0.0000
     52 H          -1.7830    2.1531   -3.0965 H       1  UNL1        0.0000
     53 H           2.1898   -2.3998   -1.9204 H       1  UNL1        0.0000
     54 H          -0.9329    1.9988   -0.9030 H       1  UNL1        0.0000
     55 H           1.0399   -1.4028   -1.3292 H       1  UNL1        0.0000
     56 H           3.1236    2.0940    0.0753 H       1  UNL1        0.0000
     57 H           2.2063   -1.2935   -3.1912 H       1  UNL1        0.0000
     58 H          -3.7111   -0.5689   -2.2942 H       1  UNL1        0.0000
     59 H           1.5064   -0.4320    2.2746 H       1  UNL1        0.0000
     60 H          -2.6398    2.1717    1.7743 H       1  UNL1        0.0000
     61 H           3.3951    2.2317   -1.9481 H       1  UNL1        0.0000
     62 H           2.6913    3.0857   -0.9898 H       1  UNL1        0.0000
     63 H          -0.1592    0.8676    3.0957 H       1  UNL1        0.0000
     64 H           0.8856   -3.9278    1.2826 H       1  UNL1        0.0000
     65 H          -2.3815   -3.2759    0.9847 H       1  UNL1        0.0000
     66 H          -1.6002    1.4517    2.6215 H       1  UNL1        0.0000
     67 H           2.8918    1.6262    1.7766 H       1  UNL1        0.0000
     68 EU          0.5437    2.5513   -2.1900 Eu      1  UNL1        0.0000
@<TRIPOS>BOND
     1     1     2    2
     2     2     3   am
     3     3     4    1
     4     3     5    1
     5     5     6    1
     6     6     7    1
     7     2     8    1
     8     8     9   ar
     9     9    10   ar
    10     8    11   ar
    11    11    12   ar
    12    12    13   ar
    13    10    13   ar
    14    13    14   ar
    15    14    15   ar
    16    15    16   ar
    17    16    17   ar
    18    12    17   ar
    19    17    18   ar
    20    18    19   ar
    21    19    20    1
    22    20    21   ar
    23    21    22   ar
    24    22    23    1
    25    23    24    1
    26    23    25    1
    27    23    26    1
    28    26    27    1
    29    27    28    1
    30    28    29    1
    31    28    30    1
    32    22    31   ar
    33    28    31    1
    34    31    32   ar
    35    32    33   ar
    36    20    33   ar
    37    19    34   ar
    38    34    35   ar
    39    16    35   ar
    40     4    36    1
    41     4    37    1
    42     4    38    1
    43     5    39    1
    44     5    40    1
    45     6    41    1
    46     6    42    1
    47     7    43    1
    48     7    44    1
    49     7    45    1
    50     9    46    1
    51    10    47    1
    52    14    48    1
    53    15    49    1
    54    24    50    1
    55    24    51    1
    56    24    52    1
    57    25    53    1
    58    25    54    1
    59    25    55    1
    60    26    56    1
    61    26    57    1
    62    27    58    1
    63    27    59    1
    64    29    60    1
    65    29    61    1
    66    29    62    1
    67    30    63    1
    68    30    64    1
    69    30    65    1
    70    34    66    1
    71    35    67    1
    72    68     1    1
    73    68    33    1
    74    68    18    1
    75    68    11    1
@<TRIPOS>MOLECULE
*****
 68 75 0 0 0
SMALL
GASTEIGER

@<TRIPOS>ATOM
      1 O          -2.3122    0.7690   -2.2460 O.2     1  UNL1        0.0000
      2 C          -2.0888    0.3739   -1.5467 C.2     1  UNL1        0.0000
      3 N          -2.2550   -1.7696    1.9911 N.am    1  UNL1        0.0000
      4 C          -3.3187   -1.7857    2.6954 C.3     1  UNL1        0.0000
      5 C          -0.2262   -3.0606    2.7498 C.3     1  UNL1        0.0000
      6 C           1.0440   -2.3065    1.9768 C.3     1  UNL1        0.0000
      7 C          -0.3512   -1.9618   -2.1011 C.3     1  UNL1        0.0000
      8 C           0.8266    2.2510   -1.4041 C.ar    1  UNL1        0.0000
      9 C           1.7708    1.2773   -1.2292 C.ar    1  UNL1        0.0000
     10 C           0.3088   -1.2174   -3.8884 C.ar    1  UNL1        0.0000
     11 N           0.8143    2.6172   -2.1545 N.ar    1  UNL1        0.0000
     12 C           1.7025    0.9426   -3.2140 C.ar    1  UNL1        0.0000
     13 C           0.6770   -1.3354   -3.9964 C.ar    1  UNL1        0.0000
     14 C           1.1039   -3.8540   -1.4226 C.ar    1  UNL1        0.0000
     15 C           1.4627   -2.6694    0.0322 C.ar    1  UNL1        0.0000
     16 C           2.2632   -1.4578   -0.0448 C.ar    1  UNL1        0.0000
     17 C           3.0994   -0.3090   -0.5696 C.ar    1  UNL1        0.0000
     18 N           2.5913    0.5702    0.4095 N.ar    1  UNL1        0.0000
     19 C          -0.0406   -0.4790    1.4534 C.ar    1  UNL1        0.0000
     20 C          -0.9098   -0.1418    1.9360 C.ar    1  UNL1        0.0000
     21 N          -2.8804   -1.0316    0.4667 N.ar    1  UNL1        0.0000
     22 C          -3.1070   -0.8960   -0.3430 C.ar    1  UNL1        0.0000
     23 C          -1.9105   -1.5559   -0.8408 C.3     1  UNL1        0.0000
     24 C          -0.1310    0.0795   -1.4519 C.3     1  UNL1        0.0000
     25 C           0.0415   -0.1140   -1.0893 C.3     1  UNL1        0.0000
     26 C           0.0633    0.2084   -0.9215 C.3     1  UNL1        0.0000
     27 C          -1.7152    0.8008    0.3787 C.3     1  UNL1        0.0000
     28 C          -0.1777    1.4136    0.6171 C.3     1  UNL1        0.0000
     29 C           0.8068    2.4296    0.6622 C.3     1  UNL1        0.0000
     30 C          -0.6976   -2.4421    0.9274 C.3     1  UNL1        0.0000
     31 C          -2.6464    1.7917   -0.1500 C.ar    1  UNL1        0.0000
     32 N          -2.5672    3.1739    0.1615 N.ar    1  UNL1        0.0000
     33 N          -1.3299    2.9626    0.8760 N.ar    1  UNL1        0.0000
     34 C          -0.0820   -0.4564    1.3656 C.ar    1  UNL1        0.0000
     35 C           1.3767   -0.8023    0.4864 C.ar    1  UNL1        0.0000
     36 H          -3.1868   -0.9427    2.7855 H       1  UNL1        0.0000
     37 H          -1.9985   -3.4011    3.4454 H       1  UNL1        0.0000
     38 H          -1.9095   -0.4613    3.5160 H       1  UNL1        0.0000
     39 H           2.1575   -4.3980    0.4376 H       1  UNL1        0.0000
     40 H          -1.1894   -1.9013    2.7296 H       1  UNL1        0.0000
     41 H           2.8094   -1.8243    2.6770 H       1  UNL1        0.0000
     42 H          -0.8967   -3.5184   -0.4819 H       1  UNL1        0.0000
     43 H          -0.4955    0.6667   -3.1828 H       1  UNL1        0.0000
     44 H           1.9240   -0.4610   -2.0215 H       1  UNL1        0.0000
     45 H          -0.0358   -2.6083   -1.9494 H       1  UNL1        0.0000
     46 H           1.4769    0.9679    1.5836 H       1  UNL1        0.0000
     47 H          -0.3153   -2.5717   -4.1632 H       1  UNL1        0.0000
     48 H           2.2029   -4.3531   -1.4634 H       1  UNL1        0.0000
     49 H           1.1402   -2.5830    3.7784 H       1  UNL1        0.0000
     50 H          -1.1705   -1.3344   -0.3859 H       1  UNL1        0.0000
     51 H          -1.1107   -1.4620   -0.4992 H       1  UNL1        0.0000
     52 H          -1.7830    2.1531   -3.0965 H       1  UNL1        0.0000
     53 H           2.1898   -2.3998   -1.9204 H       1  UNL1        0.0000
     54 H          -0.9329    1.9988   -0.9030 H       1  UNL1        0.0000
     55 H           1.0399   -1.4028   -1.3292 H       1  UNL1        0.0000
     56 H           3.1236    2.0940    0.0753 H       1  UNL1        0.0000
     57 H           2.2063   -1.2935   -3.1912 H       1  UNL1        0.0000
     58 H          -3.7111   -0.5689   -2.2942 H       1  UNL1        0.0000
     59 H           1.5064   -0.4320    2.2746 H       1  UNL1        0.0000
     60 H          -2.6398    2.1717    1.7743 H       1  UNL1        0.0000
     61 H           3.3951    2.2317   -1.9481 H       1  UNL1        0.0000
     62 H           2.6913    3.0857   -0.9898 H       1  UNL1        0.0000
     63 H          -0.1592    0.8676    3.0957 H       1  UNL1        0.0000
     64 H           0.8856   -3.9278    1.2826 H       1  UNL1        0.0000
     65 H          -2.3815   -3.2759    0.9847 H       1  UNL1        0.0000
     66 H          -1.6002    1.4517    2.6215 H       1  UNL1        0.0000
     67 H           2.8918    1.6262    1.7766 H       1  UNL1        0.0000
     68 EU          0.5437    2.5513   -2.1900 Eu      1  UNL1        0.0000
@<TRIPOS>BOND
     1     1     2    2
     2     2     3   am
     3     3     4    1
     4     3     5    1
     5     5     6    1
     6     6     7    1
     7     2     8    1
     8     8     9   ar
     9     9    10   ar
    10     8    11   ar
    11    11    12   ar
    12    12    13   ar
    13    10    13   ar
    14    13    14   ar
    15    14    15   ar
    16    15    16   ar
    17    16    17   ar
    18    12    17   ar
    19    17    18   ar
    20    18    19   ar
    21    19    20    1
    22    20    21   ar
    23    21    22   ar
    24    22    23    1
    25    23    24    1
    26    23    25    1
    27    23    26    1
    28    26    27    1
    29    27    28    1
    30    28    29    1
    31    28    30    1
    32    22    31   ar
    33    28    31    1
    34    31    32   ar
    35    32    33   ar
    36    20    33   ar
    37    19    34   ar
    38    34    35   ar
    39    16    35   ar
    40     4    36    1
    41     4    37    1
    42     4    38    1
    43     5    39    1
    44     5    40    1
    45     6    41    1
    46     6    42    1
    47     7    43    1
    48     7    44    1
    49     7    45    1
    50     9    46    1
    51    10    47    1
    52    14    48    1
    53    15    49    1
    54    24    50    1
    55    24    51    1
    56    24    52    1
    57    25    53    1
    58    25    54    1
    59    25    55    1
    60    26    56    1
    61    26    57    1
    62    27    58    1
    63    27    59    1
    64    29    60    1
    65    29    61    1
    66    29    62    1
    67    30    63    1
    68    30    64    1
    69    30    65    1
    70    34    66    1
    71    35    67    1
    72    68     1    1
    73    68    33    1
    74    68    18    1
    75    68    11    1
@<TRIPOS>MOLECULE
*****
 68 75 0 0 0
SMALL
GASTEIGER

@<TRIPOS>ATOM
      1 O          -2.3122    0.7690   -2.2460 O.2     1  UNL1        0.0000
      2 C          -2.0888    0.3739   -1.5467 C.2     1  UNL1        0.0000
      3 N          -2.2550   -1.7696    1.9911 N.am    1  UNL1        0.0000
      4 C          -3.3187   -1.7857    2.6954 C.3     1  UNL1        0.0000
      5 C          -0.2262   -3.0606    2.7498 C.3     1  UNL1        0.0000
      6 C           1.0440   -2.3065    1.9768 C.3     1  UNL1        0.0000
      7 C          -0.3512   -1.9618   -2.1011 C.3     1  UNL1        0.0000
      8 C           0.8266    2.2510   -1.4041 C.ar    1  UNL1        0.0000
      9 C           1.7708    1.2773   -1.2292 C.ar    1  UNL1        0.0000
     10 C           0.3088   -1.2174   -3.8884 C.ar    1  UNL1        0.0000
     11 N           0.8143    2.6172   -2.1545 N.ar    1  UNL1        0.0000
     12 C           1.7025    0.9426   -3.2140 C.ar    1  UNL1        0.0000
     13 C           0.6770   -1.3354   -3.9964 C.ar    1  UNL1        0.0000
     14 C           1.1039   -3.8540   -1.4226 C.ar    1  UNL1        0.0000
     15 C           1.4627   -2.6694    0.0322 C.ar    1  UNL1        0.0000
     16 C           2.2632   -1.4578   -0.0448 C.ar    1  UNL1        0.0000
     17 C           3.0994   -0.3090   -0.5696 C.ar    1  UNL1        0.0000
     18 N           2.5913    0.5702    0.4095 N.ar    1  UNL1        0.0000
     19 C          -0.0406   -0.4790    1.4534 C.ar    1  UNL1        0.0000
     20 C          -0.9098   -0.1418    1.9360 C.ar    1  UNL1        0.0000
     21 N          -2.8804   -1.0316    0.4667 N.ar    1  UNL1        0.0000
     22 C          -3.1070   -0.8960   -0.3430 C.ar    1  UNL1        0.0000
     23 C          -1.9105   -1.5559   -0.8408 C.3     1  UNL1        0.0000
     24 C          -0.1310    0.0795   -1.4519 C.3     1  UNL1        0.0000
     25 C           0.0415   -0.1140   -1.0893 C.3     1  UNL1        0.0000
     26 C           0.0633    0.2084   -0.9215 C.3     1  UNL1        0.0000
     27 C          -1.7152    0.8008    0.3787 C.3     1  UNL1        0.0000
     28 C          -0.1777    1.4136    0.6171 C.3     1  UNL1        0.0000
     29 C           0.8068    2.4296    0.6622 C.3     1  UNL1        0.0000
     30 C          -0.6976   -2.4421    0.9274 C.3     1  UNL1        0.0000
     31 C          -2.6464    1.7917   -0.1500 C.ar    1  UNL1        0.0000
     32 N          -2.5672    3.1739    0.1615 N.ar    1  UNL1        0.0000
     33 N          -1.3299    2.9626    0.8760 N.ar    1  UNL1        0.0000
     34 C          -0.0820   -0.4564    1.3656 C.ar    1  UNL1        0.0000
     35 C           1.3767   -0.8023    0.4864 C.ar    1  UNL1        0.0000
     36 H          -3.1868   -0.9427    2.7855 H       1  UNL1        0.0000
     37 H          -1.9985   -3.4011    3.4454 H       1  UNL1        0.0000
     38 H          -1.9095   -0.4613    3.5160 H       1  UNL1        0.0000
     39 H           2.1575   -4.3980    0.4376 H       1  UNL1        0.0000
     40 H          -1.1894   -1.9013    2.7296 H       1  UNL1        0.0000
     41 H           2.8094   -1.8243    2.6770 H       1  UNL1        0.0000
     42 H          -0.8967   -3.5184   -0.4819 H       1  UNL1        0.0000
     43 H          -0.4955    0.6667   -3.1828 H       1  UNL1        0.0000
     44 H           1.9240   -0.4610   -2.0215 H       1  UNL1        0.0000
     45 H          -0.0358   -2.6083   -1.9494 H       1  UNL1        0.0000
     46 H           1.4769    0.9679    1.5836 H       1  UNL1        0.0000
     47 H          -0.3153   -2.5717   -4.1632 H       1  UNL1        0.0000
     48 H           2.2029   -4.3531   -1.4634 H       1  UNL1        0.0000
     49 H           1.1402   -2.5830    3.7784 H       1  UNL1        0.0000
     50 H          -1.1705   -1.3344   -0.3859 H       1  UNL1        0.0000
     51 H          -1.1107   -1.4620   -0.4992 H       1  UNL1        0.0000
     52 H          -1.7830    2.1531   -3.0965 H       1  UNL1        0.0000
     53 H           2.1898   -2.3998   -1.9204 H       1  UNL1        0.0000
     54 H          -0.9329    1.9988   -0.9030 H       1  UNL1        0.0000
     55 H           1.0399   -1.4028   -1.3292 H       1  UNL1        0.0000
     56 H           3.1236    2.0940    0.0753 H       1  UNL1        0.0000
     57 H           2.2063   -1.2935   -3.1912 H       1  UNL1        0.0000
     58 H          -3.7111   -0.5689   -2.2942 H       1  UNL1        0.0000
     59 H           1.5064   -0.4320    2.2746 H       1  UNL1        0.0000
     60 H          -2.6398    2.1717    1.7743 H       1  UNL1        0.0000
     61 H           3.3951    2.2317   -1.9481 H       1  UNL1        0.0000
     62 H           2.6913    3.0857   -0.9898 H       1  UNL1        0.0000
     63 H          -0.1592    0.8676    3.0957 H       1  UNL1        0.0000
     64 H           0.8856   -3.9278    1.2826 H       1  UNL1        0.0000
     65 H          -2.3815   -3.2759    0.9847 H       1  UNL1        0.0000
     66 H          -1.6002    1.4517    2.6215 H       1  UNL1        0.0000
     67 H           2.8918    1.6262    1.7766 H       1  UNL1        0.0000
     68 EU          0.5437    2.5513   -2.1900 Eu      1  UNL1        0.0000
@<TRIPOS>BOND
     1     1     2    2
     2     2     3   am
     3     3     4    1
     4     3     5    1
     5     5     6    1
     6     6     7    1
     7     2     8    1
     8     8     9   ar
     9     9    10   ar
    10     8    11   ar
    11    11    12   ar
    12    12    13   ar
    13    10    13   ar
    14    13    14   ar
    15    14    15   ar
    16    15    16   ar
    17    16    17   ar
    18    12    17   ar
    19    17    18   ar
    20    18    19   ar
    21    19    20    1
    22    20    21   ar
    23    21    22   ar
    24    22    23    1
    25    23    24    1
    26    23    25    1
    27    23    26    1
    28    26    27    1
    29    27    28    1
    30    28    29    1
    31    28    30    1
    32    22    31   ar
    33    28    31    1
    34    31    32   ar
    35    32    33   ar
    36    20    33   ar
    37    19    34   ar
    38    34    35   ar
    39    16    35   ar
    40     4    36    1
    41     4    37    1
    42     4    38    1
    43     5    39    1
    44     5    40    1
    45     6    41    1
    46     6    42    1
    47     7    43    1
    48     7    44    1
    49     7    45    1
    50     9    46    1
    51    10    47    1
    52    14    48    1
    53    15    49    1
    54    24    50    1
    55    24    51    1
    56    24    52    1
    57    25    53    1
    58    25    54    1
    59    25    55    1
    60    26    56    1
    61    26    57    1
    62    27    58    1
    63    27    59    1
    64    29    60    1
    65    29    61    1
    66    29    62    1
    67    30    63    1
    68    30    64    1
    69    30    65    1
    70    34    66    1
    71    35    67    1
    72    68     1    1
    73    68    33    1
    74    68    18    1
    75    68    11    1
@<TRIPOS>MOLECULE
*****
 68 75 0 0 0
SMALL
GASTEIGER

@<TRIPOS>ATOM
      1 O          -2.3122    0.7690   -2.2460 O.2     1  UNL1        0.0000
      2 C          -2.0888    0.3739   -1.5467 C.2     1  UNL1        0.0000
      3 N          -2.2550   -1.7696    1.9911 N.am    1  UNL1        0.0000
      4 C          -3.3187   -1.7857    2.6954 C.3     1  UNL1        0.0000
      5 C          -0.2262   -3.0606    2.7498 C.3     1  UNL1        0.0000
      6 C           1.0440   -2.3065    1.9768 C.3     1  UNL1        0.0000
      7 C          -0.3512   -1.9618   -2.1011 C.3     1  UNL1        0.0000
      8 C           0.8266    2.2510   -1.4041 C.ar    1  UNL1        0.0000
      9 C           1.7708    1.2773   -1.2292 C.ar    1  UNL1        0.0000
     10 C           0.3088   -1.2174   -3.8884 C.ar    1  UNL1        0.0000
     11 N           0.8143    2.6172   -2.1545 N.ar    1  UNL1        0.0000
     12 C           1.7025    0.9426   -3.2140 C.ar    1  UNL1        0.0000
     13 C           0.6770   -1.3354   -3.9964 C.ar    1  UNL1        0.0000
     14 C           1.1039   -3.8540   -1.4226 C.ar    1  UNL1        0.0000
     15 C           1.4627   -2.6694    0.0322 C.ar    1  UNL1        0.0000
     16 C           2.2632   -1.4578   -0.0448 C.ar    1  UNL1        0.0000
     17 C           3.0994   -0.3090   -0.5696 C.ar    1  UNL1        0.0000
     18 N           2.5913    0.5702    0.4095 N.ar    1  UNL1        0.0000
     19 C          -0.0406   -0.4790    1.4534 C.ar    1  UNL1        0.0000
     20 C          -0.9098   -0.1418    1.9360 C.ar    1  UNL1        0.0000
     21 N          -2.8804   -1.0316    0.4667 N.ar    1  UNL1        0.0000
     22 C          -3.1070   -0.8960   -0.3430 C.ar    1  UNL1        0.0000
     23 C          -1.9105   -1.5559   -0.8408 C.3     1  UNL1        0.0000
     24 C          -0.1310    0.0795   -1.4519 C.3     1  UNL1        0.0000
     25 C           0.0415   -0.1140   -1.0893 C.3     1  UNL1        0.0000
     26 C           0.0633    0.2084   -0.9215 C.3     1  UNL1        0.0000
     27 C          -1.7152    0.8008    0.3787 C.3     1  UNL1        0.0000
     28 C          -0.1777    1.4136    0.6171 C.3     1  UNL1        0.0000
     29 C           0.8068    2.4296    0.6622 C.3     1  UNL1        0.0000
     30 C          -0.6976   -2.4421    0.9274 C.3     1  UNL1        0.0000
     31 C          -2.6464    1.7917   -0.1500 C.ar    1  UNL1        0.0000
     32 N          -2.5672    3.1739    0.1615 N.ar    1  UNL1        0.0000
     33 N          -1.3299    2.9626    0.8760 N.ar    1  UNL1        0.0000
     34 C          -0.0820   -0.4564    1.3656 C.ar    1  UNL1        0.0000
     35 C           1.3767   -0.8023    0.4864 C.ar    1  UNL1        0.0000
     36 H          -3.1868   -0.9427    2.7855 H       1  UNL1        0.0000
     37 H          -1.9985   -3.4011    3.4454 H       1  UNL1        0.0000
     38 H          -1.9095   -0.4613    3.5160 H       1  UNL1        0.0000
     39 H           2.1575   -4.3980    0.4376 H       1  UNL1        0.0000
     40 H          -1.1894   -1.9013    2.7296 H       1  UNL1        0.0000
     41 H           2.8094   -1.8243    2.6770 H       1  UNL1        0.0000
     42 H          -0.8967   -3.5184   -0.4819 H       1  UNL1        0.0000
     43 H          -0.4955    0.6667   -3.1828 H       1  UNL1        0.0000
     44 H           1.9240   -0.4610   -2.0215 H       1  UNL1        0.0000
     45 H          -0.0358   -2.6083   -1.9494 H       1  UNL1        0.0000
     46 H           1.4769    0.9679    1.5836 H       1  UNL1        0.0000
     47 H          -0.3153   -2.5717   -4.1632 H       1  UNL1        0.0000
     48 H           2.2029   -4.3531   -1.4634 H       1  UNL1        0.0000
     49 H           1.1402   -2.5830    3.7784 H       1  UNL1        0.0000
     50 H          -1.1705   -1.3344   -0.3859 H       1  UNL1        0.0000
     51 H          -1.1107   -1.4620   -0.4992 H       1  UNL1        0.0000
     52 H          -1.7830    2.1531   -3.0965 H       1  UNL1        0.0000
     53 H           2.1898   -2.3998   -1.9204 H       1  UNL1        0.0000
     54 H          -0.9329    1.9988   -0.9030 H       1  UNL1        0.0000
     55 H           1.0399   -1.4028   -1.3292 H       1  UNL1        0.0000
     56 H           3.1236    2.0940    0.0753 H       1  UNL1        0.0000
     57 H           2.2063   -1.2935   -3.1912 H       1  UNL1        0.0000
     58 H          -3.7111   -0.5689   -2.2942 H       1  UNL1        0.0000
     59 H           1.5064   -0.4320    2.2746 H       1  UNL1        0.0000
     60 H          -2.6398    2.1717    1.7743 H       1  UNL1        0.0000
     61 H           3.3951    2.2317   -1.9481 H       1  UNL1        0.0000
     62 H           2.6913    3.0857   -0.9898 H       1  UNL1        0.0000
     63 H          -0.1592    0.8676    3.0957 H       1  UNL1        0.0000
     64 H           0.8856   -3.9278    1.2826 H       1  UNL1        0.0000
     65 H          -2.3815   -3.2759    0.9847 H       1  UNL1        0.0000
     66 H          -1.6002    1.4517    2.6215 H       1  UNL1        0.0000
     67 H           2.8918    1.6262    1.7766 H       1  UNL1        0.0000
     68 EU          0.5437    2.5513   -2.1900 Eu      1  UNL1        0.0000
@<TRIPOS>BOND
     1     1     2    2
     2     2     3   am
     3     3     4    1
     4     3     5    1
     5     5     6    1
     6     6     7    1
     7     2     8    1
     8     8     9   ar
     9     9    10   ar
    10     8    11   ar
    11    11    12   ar
    12    12    13   ar
    13    10    13   ar
    14    13    14   ar
    15    14    15   ar
    16    15    16   ar
    17    16    17   ar
    18    12    17   ar
    19    17    18   ar
    20    18    19   ar
    21    19    20    1
    22    20    21   ar
    23    21    22   ar
    24    22    23    1
    25    23    24    1
    26    23    25    1
    27    23    26    1
    28    26    27    1
    29    27    28    1
    30    28    29    1
    31    28    30    1
    32    22    31   ar
    33    28    31    1
    34    31    32   ar
    35    32    33   ar
    36    20    33   ar
    37    19    34   ar
    38    34    35   ar
    39    16    35   ar
    40     4    36    1
    41     4    37    1
    42     4    38    1
    43     5    39    1
    44     5    40    1
    45     6    41    1
    46     6    42    1
    47     7    43    1
    48     7    44    1
    49     7    45    1
    50     9    46    1
    51    10    47    1
    52    14    48    1
    53    15    49    1
    54    24    50    1
    55    24    51    1
    56    24    52    1
    57    25    53    1
    58    25    54    1
    59    25    55    1
    60    26    56    1
    61    26    57    1
    62    27    58    1
    63    27    59    1
    64    29    60    1
    65    29    61    1
    66    29    62    1
    67    30    63    1
    68    30    64    1
    69    30    65    1
    70    34    66    1
    71    35    67    1
    72    68     1    1
    73    68    33    1
    74    68    18    1
    75    68    11    1
@<TRIPOS>MOLECULE
*****
 68 75 0 0 0
SMALL
GASTEIGER

@<TRIPOS>ATOM
      1 O          -2.3122    0.7690   -2.2460 O.2     1  UNL1        0.0000
      2 C          -2.0888    0.3739   -1.5467 C.2     1  UNL1        0.0000
      3 N          -2.2550   -1.7696    1.9911 N.am    1  UNL1        0.0000
      4 C          -3.3187   -1.7857    2.6954 C.3     1  UNL1        0.0000
      5 C          -0.2262   -3.0606    2.7498 C.3     1  UNL1        0.0000
      6 C           1.0440   -2.3065    1.9768 C.3     1  UNL1        0.0000
      7 C          -0.3512   -1.9618   -2.1011 C.3     1  UNL1        0.0000
      8 C           0.8266    2.2510   -1.4041 C.ar    1  UNL1        0.0000
      9 C           1.7708    1.2773   -1.2292 C.ar    1  UNL1        0.0000
     10 C           0.3088   -1.2174   -3.8884 C.ar    1  UNL1        0.0000
     11 N           0.8143    2.6172   -2.1545 N.ar    1  UNL1        0.0000
     12 C           1.7025    0.9426   -3.2140 C.ar    1  UNL1        0.0000
     13 C           0.6770   -1.3354   -3.9964 C.ar    1  UNL1        0.0000
     14 C           1.1039   -3.8540   -1.4226 C.ar    1  UNL1        0.0000
     15 C           1.4627   -2.6694    0.0322 C.ar    1  UNL1        0.0000
     16 C           2.2632   -1.4578   -0.0448 C.ar    1  UNL1        0.0000
     17 C           3.0994   -0.3090   -0.5696 C.ar    1  UNL1        0.0000
     18 N           2.5913    0.5702    0.4095 N.ar    1  UNL1        0.0000
     19 C          -0.0406   -0.4790    1.4534 C.ar    1  UNL1        0.0000
     20 C          -0.9098   -0.1418    1.9360 C.ar    1  UNL1        0.0000
     21 N          -2.8804   -1.0316    0.4667 N.ar    1  UNL1        0.0000
     22 C          -3.1070   -0.8960   -0.3430 C.ar    1  UNL1        0.0000
     23 C          -1.9105   -1.5559   -0.8408 C.3     1  UNL1        0.0000
     24 C          -0.1310    0.0795   -1.4519 C.3     1  UNL1        0.0000
     25 C           0.0415   -0.1140   -1.0893 C.3     1  UNL1        0.0000
     26 C           0.0633    0.2084   -0.9215 C.3     1  UNL1        0.0000
     27 C          -1.7152    0.8008    0.3787 C.3     1  UNL1        0.0000
     28 C          -0.1777    1.4136    0.6171 C.3     1  UNL1        0.0000
     29 C           0.8068    2.4296    0.6622 C.3     1  UNL1        0.0000
     30 C          -0.6976   -2.4421    0.9274 C.3     1  UNL1        0.0000
     31 C          -2.6464    1.7917   -0.1500 C.ar    1  UNL1        0.0000
     32 N          -2.5672    3.1739    0.1615 N.ar    1  UNL1        0.0000
     33 N          -1.3299    2.9626    0.8760 N.ar    1  UNL1        0.0000
     34 C          -0.0820   -0.4564    1.3656 C.ar    1  UNL1        0.0000
     35 C           1.3767   -0.8023    0.4864 C.ar    1  UNL1        0.0000
     36 H          -3.1868   -0.9427    2.7855 H       1  UNL1        0.0000
     37 H          -1.9985   -3.4011    3.4454 H       1  UNL1        0.0000
     38 H          -1.9095   -0.4613    3.5160 H       1  UNL1        0.0000
     39 H           2.1575   -4.3980    0.4376 H       1  UNL1        0.0000
     40 H          -1.1894   -1.9013    2.7296 H       1  UNL1        0.0000
     41 H           2.8094   -1.8243    2.6770 H       1  UNL1        0.0000
     42 H          -0.8967   -3.5184   -0.4819 H       1  UNL1        0.0000
     43 H          -0.4955    0.6667   -3.1828 H       1  UNL1        0.0000
     44 H           1.9240   -0.4610   -2.0215 H       1  UNL1        0.0000
     45 H          -0.0358   -2.6083   -1.9494 H       1  UNL1        0.0000
     46 H           1.4769    0.9679    1.5836 H       1  UNL1        0.0000
     47 H          -0.3153   -2.5717   -4.1632 H       1  UNL1        0.0000
     48 H           2.2029   -4.3531   -1.4634 H       1  UNL1        0.0000
     49 H           1.1402   -2.5830    3.7784 H       1  UNL1        0.0000
     50 H          -1.1705   -1.3344   -0.3859 H       1  UNL1        0.0000
     51 H          -1.1107   -1.4620   -0.4992 H       1  UNL1        0.0000
     52 H          -1.7830    2.1531   -3.0965 H       1  UNL1        0.0000
     53 H           2.1898   -2.3998   -1.9204 H       1  UNL1        0.0000
     54 H          -0.9329    1.9988   -0.9030 H       1  UNL1        0.0000
     55 H           1.0399   -1.4028   -1.3292 H       1  UNL1        0.0000
     56 H           3.1236    2.0940    0.0753 H       1  UNL1        0.0000
     57 H           2.2063   -1.2935   -3.1912 H       1  UNL1        0.0000
     58 H          -3.7111   -0.5689   -2.2942 H       1  UNL1        0.0000
     59 H           1.5064   -0.4320    2.2746 H       1  UNL1        0.0000
     60 H          -2.6398    2.1717    1.7743 H       1  UNL1        0.0000
     61 H           3.3951    2.2317   -1.9481 H       1  UNL1        0.0000
     62 H           2.6913    3.0857   -0.9898 H       1  UNL1        0.0000
     63 H          -0.1592    0.8676    3.0957 H       1  UNL1        0.0000
     64 H           0.8856   -3.9278    1.2826 H       1  UNL1        0.0000
     65 H          -2.3815   -3.2759    0.9847 H       1  UNL1        0.0000
     66 H          -1.6002    1.4517    2.6215 H       1  UNL1        0.0000
     67 H           2.8918    1.6262    1.7766 H       1  UNL1        0.0000
     68 EU          0.5437    2.5513   -2.1900 Eu      1  UNL1        0.0000
@<TRIPOS>BOND
     1     1     2    2
     2     2     3   am
     3     3     4    1
     4     3     5    1
     5     5     6    1
     6     6     7    1
     7     2     8    1
     8     8     9   ar
     9     9    10   ar
    10     8    11   ar
    11    11    12   ar
    12    12    13   ar
    13    10    13   ar
    14    13    14   ar
    15    14    15   ar
    16    15    16   ar
    17    16    17   ar
    18    12    17   ar
    19    17    18   ar
    20    18    19   ar
    21    19    20    1
    22    20    21   ar
    23    21    22   ar
    24    22    23    1
    25    23    24    1
    26    23    25    1
    27    23    26    1
    28    26    27    1
    29    27    28    1
    30    28    29    1
    31    28    30    1
    32    22    31   ar
    33    28    31    1
    34    31    32   ar
    35    32    33   ar
    36    20    33   ar
    37    19    34   ar
    38    34    35   ar
    39    16    35   ar
    40     4    36    1
    41     4    37    1
    42     4    38    1
    43     5    39    1
    44     5    40    1
    45     6    41    1
    46     6    42    1
    47     7    43    1
    48     7    44    1
    49     7    45    1
    50     9    46    1
    51    10    47    1
    52    14    48    1
    53    15    49    1
    54    24    50    1
    55    24    51    1
    56    24    52    1
    57    25    53    1
    58    25    54    1
    59    25    55    1
    60    26    56    1
    61    26    57    1
    62    27    58    1
    63    27    59    1
    64    29    60    1
    65    29    61    1
    66    29    62    1
    67    30    63    1
    68    30    64    1
    69    30    65    1
    70    34    66    1
    71    35    67    1
    72    68     1    1
    73    68    33    1
    74    68    18    1
    75    68    11    1
@<TRIPOS>MOLECULE
*****
 68 75 0 0 0
SMALL
GASTEIGER

@<TRIPOS>ATOM
      1 O          -2.3122    0.7690   -2.2460 O.2     1  UNL1        0.0000
      2 C          -2.0888    0.3739   -1.5467 C.2     1  UNL1        0.0000
      3 N          -2.2550   -1.7696    1.9911 N.am    1  UNL1        0.0000
      4 C          -3.3187   -1.7857    2.6954 C.3     1  UNL1        0.0000
      5 C          -0.2262   -3.0606    2.7498 C.3     1  UNL1        0.0000
      6 C           1.0440   -2.3065    1.9768 C.3     1  UNL1        0.0000
      7 C          -0.3512   -1.9618   -2.1011 C.3     1  UNL1        0.0000
      8 C           0.8266    2.2510   -1.4041 C.ar    1  UNL1        0.0000
      9 C           1.7708    1.2773   -1.2292 C.ar    1  UNL1        0.0000
     10 C           0.3088   -1.2174   -3.8884 C.ar    1  UNL1        0.0000
     11 N           0.8143    2.6172   -2.1545 N.ar    1  UNL1        0.0000
     12 C           1.7025    0.9426   -3.2140 C.ar    1  UNL1        0.0000
     13 C           0.6770   -1.3354   -3.9964 C.ar    1  UNL1        0.0000
     14 C           1.1039   -3.8540   -1.4226 C.ar    1  UNL1        0.0000
     15 C           1.4627   -2.6694    0.0322 C.ar    1  UNL1        0.0000
     16 C           2.2632   -1.4578   -0.0448 C.ar    1  UNL1        0.0000
     17 C           3.0994   -0.3090   -0.5696 C.ar    1  UNL1        0.0000
     18 N           2.5913    0.5702    0.4095 N.ar    1  UNL1        0.0000
     19 C          -0.0406   -0.4790    1.4534 C.ar    1  UNL1        0.0000
     20 C          -0.9098   -0.1418    1.9360 C.ar    1  UNL1        0.0000
     21 N          -2.8804   -1.0316    0.4667 N.ar    1  UNL1        0.0000
     22 C          -3.1070   -0.8960   -0.3430 C.ar    1  UNL1        0.0000
     23 C          -1.9105   -1.5559   -0.8408 C.3     1  UNL1        0.0000
     24 C          -0.1310    0.0795   -1.4519 C.3     1  UNL1        0.0000
     25 C           0.0415   -0.1140   -1.0893 C.3     1  UNL1        0.0000
     26 C           0.0633    0.2084   -0.9215 C.3     1  UNL1        0.0000
     27 C          -1.7152    0.8008    0.3787 C.3     1  UNL1        0.0000
     28 C          -0.1777    1.4136    0.6171 C.3     1  UNL1        0.0000
     29 C           0.8068    2.4296    0.6622 C.3     1  UNL1        0.0000
     30 C          -0.6976   -2.4421    0.9274 C.3     1  UNL1        0.0000
     31 C          -2.6464    1.7917   -0.1500 C.ar    1  UNL1        0.0000
     32 N          -2.5672    3.1739    0.1615 N.ar    1  UNL1        0.0000
     33 N          -1.3299    2.9626    0.8760 N.ar    1  UNL1        0.0000
     34 C          -0.0820   -0.4564    1.3656 C.ar    1  UNL1        0.0000
     35 C           1.3767   -0.8023    0.4864 C.ar    1  UNL1        0.0000
     36 H          -3.1868   -0.9427    2.7855 H       1  UNL1        0.0000
     37 H          -1.9985   -3.4011    3.4454 H       1  UNL1        0.0000
     38 H          -1.9095   -0.4613    3.5160 H       1  UNL1        0.0000
     39 H           2.1575   -4.3980    0.4376 H       1  UNL1        0.0000
     40 H          -1.1894   -1.9013    2.7296 H       1  UNL1        0.0000
     41 H           2.8094   -1.8243    2.6770 H       1  UNL1        0.0000
     42 H          -0.8967   -3.5184   -0.4819 H       1  UNL1        0.0000
     43 H          -0.4955    0.6667   -3.1828 H       1  UNL1        0.0000
     44 H           1.9240   -0.4610   -2.0215 H       1  UNL1        0.0000
     45 H          -0.0358   -2.6083   -1.9494 H       1  UNL1        0.0000
     46 H           1.4769    0.9679    1.5836 H       1  UNL1        0.0000
     47 H          -0.3153   -2.5717   -4.1632 H       1  UNL1        0.0000
     48 H           2.2029   -4.3531   -1.4634 H       1  UNL1        0.0000
     49 H           1.1402   -2.5830    3.7784 H       1  UNL1        0.0000
     50 H          -1.1705   -1.3344   -0.3859 H       1  UNL1        0.0000
     51 H          -1.1107   -1.4620   -0.4992 H       1  UNL1        0.0000
     52 H          -1.7830    2.1531   -3.0965 H       1  UNL1        0.0000
     53 H           2.1898   -2.3998   -1.9204 H       1  UNL1        0.0000
     54 H          -0.9329    1.9988   -0.9030 H       1  UNL1        0.0000
     55 H           1.0399   -1.4028   -1.3292 H       1  UNL1        0.0000
     56 H           3.1236    2.0940    0.0753 H       1  UNL1        0.0000
     57 H           2.2063   -1.2935   -3.1912 H       1  UNL1        0.0000
     58 H          -3.7111   -0.5689   -2.2942 H       1  UNL1        0.0000
     59 H           1.5064   -0.4320    2.2746 H       1  UNL1        0.0000
     60 H          -2.6398    2.1717    1.7743 H       1  UNL1        0.0000
     61 H           3.3951    2.2317   -1.9481 H       1  UNL1        0.0000
     62 H           2.6913    3.0857   -0.9898 H       1  UNL1        0.0000
     63 H          -0.1592    0.8676    3.0957 H       1  UNL1        0.0000
     64 H           0.8856   -3.9278    1.2826 H       1  UNL1        0.0000
     65 H          -2.3815   -3.2759    0.9847 H       1  UNL1        0.0000
     66 H          -1.6002    1.4517    2.6215 H       1  UNL1        0.0000
     67 H           2.8918    1.6262    1.7766 H       1  UNL1        0.0000
     68 EU          0.5437    2.5513   -2.1900 Eu      1  UNL1        0.0000
@<TRIPOS>BOND
     1     1     2    2
     2     2     3   am
     3     3     4    1
     4     3     5    1
     5     5     6    1
     6     6     7    1
     7     2     8    1
     8     8     9   ar
     9     9    10   ar
    10     8    11   ar
    11    11    12   ar
    12    12    13   ar
    13    10    13   ar
    14    13    14   ar
    15    14    15   ar
    16    15    16   ar
    17    16    17   ar
    18    12    17   ar
    19    17    18   ar
    20    18    19   ar
    21    19    20    1
    22    20    21   ar
    23    21    22   ar
    24    22    23    1
    25    23    24    1
    26    23    25    1
    27    23    26    1
    28    26    27    1
    29    27    28    1
    30    28    29    1
    31    28    30    1
    32    22    31   ar
    33    28    31    1
    34    31    32   ar
    35    32    33   ar
    36    20    33   ar
    37    19    34   ar
    38    34    35   ar
    39    16    35   ar
    40     4    36    1
    41     4    37    1
    42     4    38    1
    43     5    39    1
    44     5    40    1
    45     6    41    1
    46     6    42    1
    47     7    43    1
    48     7    44    1
    49     7    45    1
    50     9    46    1
    51    10    47    1
    52    14    48    1
    53    15    49    1
    54    24    50    1
    55    24    51    1
    56    24    52    1
    57    25    53    1
    58    25    54    1
    59    25    55    1
    60    26    56    1
    61    26    57    1
    62    27    58    1
    63    27    59    1
    64    29    60    1
    65    29    61    1
    66    29    62    1
    67    30    63    1
    68    30    64    1
    69    30    65    1
    70    34    66    1
    71    35    67    1
    72    68     1    1
    73    68    33    1
    74    68    18    1
    75    68    11    1
@<TRIPOS>MOLECULE
*****
 68 75 0 0 0
SMALL
GASTEIGER

@<TRIPOS>ATOM
      1 O          -2.3122    0.7690   -2.2460 O.2     1  UNL1        0.0000
      2 C          -2.0888    0.3739   -1.5467 C.2     1  UNL1        0.0000
      3 N          -2.2550   -1.7696    1.9911 N.am    1  UNL1        0.0000
      4 C          -3.3187   -1.7857    2.6954 C.3     1  UNL1        0.0000
      5 C          -0.2262   -3.0606    2.7498 C.3     1  UNL1        0.0000
      6 C           1.0440   -2.3065    1.9768 C.3     1  UNL1        0.0000
      7 C          -0.3512   -1.9618   -2.1011 C.3     1  UNL1        0.0000
      8 C           0.8266    2.2510   -1.4041 C.ar    1  UNL1        0.0000
      9 C           1.7708    1.2773   -1.2292 C.ar    1  UNL1        0.0000
     10 C           0.3088   -1.2174   -3.8884 C.ar    1  UNL1        0.0000
     11 N           0.8143    2.6172   -2.1545 N.ar    1  UNL1        0.0000
     12 C           1.7025    0.9426   -3.2140 C.ar    1  UNL1        0.0000
     13 C           0.6770   -1.3354   -3.9964 C.ar    1  UNL1        0.0000
     14 C           1.1039   -3.8540   -1.4226 C.ar    1  UNL1        0.0000
     15 C           1.4627   -2.6694    0.0322 C.ar    1  UNL1        0.0000
     16 C           2.2632   -1.4578   -0.0448 C.ar    1  UNL1        0.0000
     17 C           3.0994   -0.3090   -0.5696 C.ar    1  UNL1        0.0000
     18 N           2.5913    0.5702    0.4095 N.ar    1  UNL1        0.0000
     19 C          -0.0406   -0.4790    1.4534 C.ar    1  UNL1        0.0000
     20 C          -0.9098   -0.1418    1.9360 C.ar    1  UNL1        0.0000
     21 N          -2.8804   -1.0316    0.4667 N.ar    1  UNL1        0.0000
     22 C          -3.1070   -0.8960   -0.3430 C.ar    1  UNL1        0.0000
     23 C          -1.9105   -1.5559   -0.8408 C.3     1  UNL1        0.0000
     24 C          -0.1310    0.0795   -1.4519 C.3     1  UNL1        0.0000
     25 C           0.0415   -0.1140   -1.0893 C.3     1  UNL1        0.0000
     26 C           0.0633    0.2084   -0.9215 C.3     1  UNL1        0.0000
     27 C          -1.7152    0.8008    0.3787 C.3     1  UNL1        0.0000
     28 C          -0.1777    1.4136    0.6171 C.3     1  UNL1        0.0000
     29 C           0.8068    2.4296    0.6622 C.3     1  UNL1        0.0000
     30 C          -0.6976   -2.4421    0.9274 C.3     1  UNL1        0.0000
     31 C          -2.6464    1.7917   -0.1500 C.ar    1  UNL1        0.0000
     32 N          -2.5672    3.1739    0.1615 N.ar    1  UNL1        0.0000
     33 N          -1.3299    2.9626    0.8760 N.ar    1  UNL1        0.0000
     34 C          -0.0820   -0.4564    1.3656 C.ar    1  UNL1        0.0000
     35 C           1.3767   -0.8023    0.4864 C.ar    1  UNL1        0.0000
     36 H          -3.1868   -0.9427    2.7855 H       1  UNL1        0.0000
     37 H          -1.9985   -3.4011    3.4454 H       1  UNL1        0.0000
     38 H          -1.9095   -0.4613    3.5160 H       1  UNL1        0.0000
     39 H           2.1575   -4.3980    0.4376 H       1  UNL1        0.0000
     40 H          -1.1894   -1.9013    2.7296 H       1  UNL1        0.0000
     41 H           2.8094   -1.8243    2.6770 H       1  UNL1        0.0000
     42 H          -0.8967   -3.5184   -0.4819 H       1  UNL1        0.0000
     43 H          -0.4955    0.6667   -3.1828 H       1  UNL1        0.0000
     44 H           1.9240   -0.4610   -2.0215 H       1  UNL1        0.0000
     45 H          -0.0358   -2.6083   -1.9494 H       1  UNL1        0.0000
     46 H           1.4769    0.9679    1.5836 H       1  UNL1        0.0000
     47 H          -0.3153   -2.5717   -4.1632 H       1  UNL1        0.0000
     48 H           2.2029   -4.3531   -1.4634 H       1  UNL1        0.0000
     49 H           1.1402   -2.5830    3.7784 H       1  UNL1        0.0000
     50 H          -1.1705   -1.3344   -0.3859 H       1  UNL1        0.0000
     51 H          -1.1107   -1.4620   -0.4992 H       1  UNL1        0.0000
     52 H          -1.7830    2.1531   -3.0965 H       1  UNL1        0.0000
     53 H           2.1898   -2.3998   -1.9204 H       1  UNL1        0.0000
     54 H          -0.9329    1.9988   -0.9030 H       1  UNL1        0.0000
     55 H           1.0399   -1.4028   -1.3292 H       1  UNL1        0.0000
     56 H           3.1236    2.0940    0.0753 H       1  UNL1        0.0000
     57 H           2.2063   -1.2935   -3.1912 H       1  UNL1        0.0000
     58 H          -3.7111   -0.5689   -2.2942 H       1  UNL1        0.0000
     59 H           1.5064   -0.4320    2.2746 H       1  UNL1        0.0000
     60 H          -2.6398    2.1717    1.7743 H       1  UNL1        0.0000
     61 H           3.3951    2.2317   -1.9481 H       1  UNL1        0.0000
     62 H           2.6913    3.0857   -0.9898 H       1  UNL1        0.0000
     63 H          -0.1592    0.8676    3.0957 H       1  UNL1        0.0000
     64 H           0.8856   -3.9278    1.2826 H       1  UNL1        0.0000
     65 H          -2.3815   -3.2759    0.9847 H       1  UNL1        0.0000
     66 H          -1.6002    1.4517    2.6215 H       1  UNL1        0.0000
     67 H           2.8918    1.6262    1.7766 H       1  UNL1        0.0000
     68 EU          0.5437    2.5513   -2.1900 Eu      1  UNL1        0.0000
@<TRIPOS>BOND
     1     1     2    2
     2     2     3   am
     3     3     4    1
     4     3     5    1
     5     5     6    1
     6     6     7    1
     7     2     8    1
     8     8     9   ar
     9     9    10   ar
    10     8    11   ar
    11    11    12   ar
    12    12    13   ar
    13    10    13   ar
    14    13    14   ar
    15    14    15   ar
    16    15    16   ar
    17    16    17   ar
    18    12    17   ar
    19    17    18   ar
    20    18    19   ar
    21    19    20    1
    22    20    21   ar
    23    21    22   ar
    24    22    23    1
    25    23    24    1
    26    23    25    1
    27    23    26    1
    28    26    27    1
    29    27    28    1
    30    28    29    1
    31    28    30    1
    32    22    31   ar
    33    28    31    1
    34    31    32   ar
    35    32    33   ar
    36    20    33   ar
    37    19    34   ar
    38    34    35   ar
    39    16    35   ar
    40     4    36    1
    41     4    37    1
    42     4    38    1
    43     5    39    1
    44     5    40    1
    45     6    41    1
    46     6    42    1
    47     7    43    1
    48     7    44    1
    49     7    45    1
    50     9    46    1
    51    10    47    1
    52    14    48    1
    53    15    49    1
    54    24    50    1
    55    24    51    1
    56    24    52    1
    57    25    53    1
    58    25    54    1
    59    25    55    1
    60    26    56    1
    61    26    57    1
    62    27    58    1
    63    27    59    1
    64    29    60    1
    65    29    61    1
    66    29    62    1
    67    30    63    1
    68    30    64    1
    69    30    65    1
    70    34    66    1
    71    35    67    1
    72    68     1    1
    73    68    33    1
    74    68    18    1
    75    68    11    1
@<TRIPOS>MOLECULE
*****
 68 75 0 0 0
SMALL
GASTEIGER

@<TRIPOS>ATOM
      1 O          -2.3122    0.7690   -2.2460 O.2     1  UNL1        0.0000
      2 C          -2.0888    0.3739   -1.5467 C.2     1  UNL1        0.0000
      3 N          -2.2550   -1.7696    1.9911 N.am    1  UNL1        0.0000
      4 C          -3.3187   -1.7857    2.6954 C.3     1  UNL1        0.0000
      5 C          -0.2262   -3.0606    2.7498 C.3     1  UNL1        0.0000
      6 C           1.0440   -2.3065    1.9768 C.3     1  UNL1        0.0000
      7 C          -0.3512   -1.9618   -2.1011 C.3     1  UNL1        0.0000
      8 C           0.8266    2.2510   -1.4041 C.ar    1  UNL1        0.0000
      9 C           1.7708    1.2773   -1.2292 C.ar    1  UNL1        0.0000
     10 C           0.3088   -1.2174   -3.8884 C.ar    1  UNL1        0.0000
     11 N           0.8143    2.6172   -2.1545 N.ar    1  UNL1        0.0000
     12 C           1.7025    0.9426   -3.2140 C.ar    1  UNL1        0.0000
     13 C           0.6770   -1.3354   -3.9964 C.ar    1  UNL1        0.0000
     14 C           1.1039   -3.8540   -1.4226 C.ar    1  UNL1        0.0000
     15 C           1.4627   -2.6694    0.0322 C.ar    1  UNL1        0.0000
     16 C           2.2632   -1.4578   -0.0448 C.ar    1  UNL1        0.0000
     17 C           3.0994   -0.3090   -0.5696 C.ar    1  UNL1        0.0000
     18 N           2.5913    0.5702    0.4095 N.ar    1  UNL1        0.0000
     19 C          -0.0406   -0.4790    1.4534 C.ar    1  UNL1        0.0000
     20 C          -0.9098   -0.1418    1.9360 C.ar    1  UNL1        0.0000
     21 N          -2.8804   -1.0316    0.4667 N.ar    1  UNL1        0.0000
     22 C          -3.1070   -0.8960   -0.3430 C.ar    1  UNL1        0.0000
     23 C          -1.9105   -1.5559   -0.8408 C.3     1  UNL1        0.0000
     24 C          -0.1310    0.0795   -1.4519 C.3     1  UNL1        0.0000
     25 C           0.0415   -0.1140   -1.0893 C.3     1  UNL1        0.0000
     26 C           0.0633    0.2084   -0.9215 C.3     1  UNL1        0.0000
     27 C          -1.7152    0.8008    0.3787 C.3     1  UNL1        0.0000
     28 C          -0.1777    1.4136    0.6171 C.3     1  UNL1        0.0000
     29 C           0.8068    2.4296    0.6622 C.3     1  UNL1        0.0000
     30 C          -0.6976   -2.4421    0.9274 C.3     1  UNL1        0.0000
     31 C          -2.6464    1.7917   -0.1500 C.ar    1  UNL1        0.0000
     32 N          -2.5672    3.1739    0.1615 N.ar    1  UNL1        0.0000
     33 N          -1.3299    2.9626    0.8760 N.ar    1  UNL1        0.0000
     34 C          -0.0820   -0.4564    1.3656 C.ar    1  UNL1        0.0000
     35 C           1.3767   -0.8023    0.4864 C.ar    1  UNL1        0.0000
     36 H          -3.1868   -0.9427    2.7855 H       1  UNL1        0.0000
     37 H          -1.9985   -3.4011    3.4454 H       1  UNL1        0.0000
     38 H          -1.9095   -0.4613    3.5160 H       1  UNL1        0.0000
     39 H           2.1575   -4.3980    0.4376 H       1  UNL1        0.0000
     40 H          -1.1894   -1.9013    2.7296 H       1  UNL1        0.0000
     41 H           2.8094   -1.8243    2.6770 H       1  UNL1        0.0000
     42 H          -0.8967   -3.5184   -0.4819 H       1  UNL1        0.0000
     43 H          -0.4955    0.6667   -3.1828 H       1  UNL1        0.0000
     44 H           1.9240   -0.4610   -2.0215 H       1  UNL1        0.0000
     45 H          -0.0358   -2.6083   -1.9494 H       1  UNL1        0.0000
     46 H           1.4769    0.9679    1.5836 H       1  UNL1        0.0000
     47 H          -0.3153   -2.5717   -4.1632 H       1  UNL1        0.0000
     48 H           2.2029   -4.3531   -1.4634 H       1  UNL1        0.0000
     49 H           1.1402   -2.5830    3.7784 H       1  UNL1        0.0000
     50 H          -1.1705   -1.3344   -0.3859 H       1  UNL1        0.0000
     51 H          -1.1107   -1.4620   -0.4992 H       1  UNL1        0.0000
     52 H          -1.7830    2.1531   -3.0965 H       1  UNL1        0.0000
     53 H           2.1898   -2.3998   -1.9204 H       1  UNL1        0.0000
     54 H          -0.9329    1.9988   -0.9030 H       1  UNL1        0.0000
     55 H           1.0399   -1.4028   -1.3292 H       1  UNL1        0.0000
     56 H           3.1236    2.0940    0.0753 H       1  UNL1        0.0000
     57 H           2.2063   -1.2935   -3.1912 H       1  UNL1        0.0000
     58 H          -3.7111   -0.5689   -2.2942 H       1  UNL1        0.0000
     59 H           1.5064   -0.4320    2.2746 H       1  UNL1        0.0000
     60 H          -2.6398    2.1717    1.7743 H       1  UNL1        0.0000
     61 H           3.3951    2.2317   -1.9481 H       1  UNL1        0.0000
     62 H           2.6913    3.0857   -0.9898 H       1  UNL1        0.0000
     63 H          -0.1592    0.8676    3.0957 H       1  UNL1        0.0000
     64 H           0.8856   -3.9278    1.2826 H       1  UNL1        0.0000
     65 H          -2.3815   -3.2759    0.9847 H       1  UNL1        0.0000
     66 H          -1.6002    1.4517    2.6215 H       1  UNL1        0.0000
     67 H           2.8918    1.6262    1.7766 H       1  UNL1        0.0000
     68 EU          0.5437    2.5513   -2.1900 Eu      1  UNL1        0.0000
@<TRIPOS>BOND
     1     1     2    2
     2     2     3   am
     3     3     4    1
     4     3     5    1
     5     5     6    1
     6     6     7    1
     7     2     8    1
     8     8     9   ar
     9     9    10   ar
    10     8    11   ar
    11    11    12   ar
    12    12    13   ar
    13    10    13   ar
    14    13    14   ar
    15    14    15   ar
    16    15    16   ar
    17    16    17   ar
    18    12    17   ar
    19    17    18   ar
    20    18    19   ar
    21    19    20    1
    22    20    21   ar
    23    21    22   ar
    24    22    23    1
    25    23    24    1
    26    23    25    1
    27    23    26    1
    28    26    27    1
    29    27    28    1
    30    28    29    1
    31    28    30    1
    32    22    31   ar
    33    28    31    1
    34    31    32   ar
    35    32    33   ar
    36    20    33   ar
    37    19    34   ar
    38    34    35   ar
    39    16    35   ar
    40     4    36    1
    41     4    37    1
    42     4    38    1
    43     5    39    1
    44     5    40    1
    45     6    41    1
    46     6    42    1
    47     7    43    1
    48     7    44    1
    49     7    45    1
    50     9    46    1
    51    10    47    1
    52    14    48    1
    53    15    49    1
    54    24    50    1
    55    24    51    1
    56    24    52    1
    57    25    53    1
    58    25    54    1
    59    25    55    1
    60    26    56    1
    61    26    57    1
    62    27    58    1
    63    27    59    1
    64    29    60    1
    65    29    61    1
    66    29    62    1
    67    30    63    1
    68    30    64    1
    69    30    65    1
    70    34    66    1
    71    35    67    1
    72    68     1    1
    73    68    33    1
    74    68    18    1
    75    68    11    1
@<TRIPOS>MOLECULE
*****
 68 75 0 0 0
SMALL
GASTEIGER

@<TRIPOS>ATOM
      1 O          -2.3122    0.7690   -2.2460 O.2     1  UNL1        0.0000
      2 C          -2.0888    0.3739   -1.5467 C.2     1  UNL1        0.0000
      3 N          -2.2550   -1.7696    1.9911 N.am    1  UNL1        0.0000
      4 C          -3.3187   -1.7857    2.6954 C.3     1  UNL1        0.0000
      5 C          -0.2262   -3.0606    2.7498 C.3     1  UNL1        0.0000
      6 C           1.0440   -2.3065    1.9768 C.3     1  UNL1        0.0000
      7 C          -0.3512   -1.9618   -2.1011 C.3     1  UNL1        0.0000
      8 C           0.8266    2.2510   -1.4041 C.ar    1  UNL1        0.0000
      9 C           1.7708    1.2773   -1.2292 C.ar    1  UNL1        0.0000
     10 C           0.3088   -1.2174   -3.8884 C.ar    1  UNL1        0.0000
     11 N           0.8143    2.6172   -2.1545 N.ar    1  UNL1        0.0000
     12 C           1.7025    0.9426   -3.2140 C.ar    1  UNL1        0.0000
     13 C           0.6770   -1.3354   -3.9964 C.ar    1  UNL1        0.0000
     14 C           1.1039   -3.8540   -1.4226 C.ar    1  UNL1        0.0000
     15 C           1.4627   -2.6694    0.0322 C.ar    1  UNL1        0.0000
     16 C           2.2632   -1.4578   -0.0448 C.ar    1  UNL1        0.0000
     17 C           3.0994   -0.3090   -0.5696 C.ar    1  UNL1        0.0000
     18 N           2.5913    0.5702    0.4095 N.ar    1  UNL1        0.0000
     19 C          -0.0406   -0.4790    1.4534 C.ar    1  UNL1        0.0000
     20 C          -0.9098   -0.1418    1.9360 C.ar    1  UNL1        0.0000
     21 N          -2.8804   -1.0316    0.4667 N.ar    1  UNL1        0.0000
     22 C          -3.1070   -0.8960   -0.3430 C.ar    1  UNL1        0.0000
     23 C          -1.9105   -1.5559   -0.8408 C.3     1  UNL1        0.0000
     24 C          -0.1310    0.0795   -1.4519 C.3     1  UNL1        0.0000
     25 C           0.0415   -0.1140   -1.0893 C.3     1  UNL1        0.0000
     26 C           0.0633    0.2084   -0.9215 C.3     1  UNL1        0.0000
     27 C          -1.7152    0.8008    0.3787 C.3     1  UNL1        0.0000
     28 C          -0.1777    1.4136    0.6171 C.3     1  UNL1        0.0000
     29 C           0.8068    2.4296    0.6622 C.3     1  UNL1        0.0000
     30 C          -0.6976   -2.4421    0.9274 C.3     1  UNL1        0.0000
     31 C          -2.6464    1.7917   -0.1500 C.ar    1  UNL1        0.0000
     32 N          -2.5672    3.1739    0.1615 N.ar    1  UNL1        0.0000
     33 N          -1.3299    2.9626    0.8760 N.ar    1  UNL1        0.0000
     34 C          -0.0820   -0.4564    1.3656 C.ar    1  UNL1        0.0000
     35 C           1.3767   -0.8023    0.4864 C.ar    1  UNL1        0.0000
     36 H          -3.1868   -0.9427    2.7855 H       1  UNL1        0.0000
     37 H          -1.9985   -3.4011    3.4454 H       1  UNL1        0.0000
     38 H          -1.9095   -0.4613    3.5160 H       1  UNL1        0.0000
     39 H           2.1575   -4.3980    0.4376 H       1  UNL1        0.0000
     40 H          -1.1894   -1.9013    2.7296 H       1  UNL1        0.0000
     41 H           2.8094   -1.8243    2.6770 H       1  UNL1        0.0000
     42 H          -0.8967   -3.5184   -0.4819 H       1  UNL1        0.0000
     43 H          -0.4955    0.6667   -3.1828 H       1  UNL1        0.0000
     44 H           1.9240   -0.4610   -2.0215 H       1  UNL1        0.0000
     45 H          -0.0358   -2.6083   -1.9494 H       1  UNL1        0.0000
     46 H           1.4769    0.9679    1.5836 H       1  UNL1        0.0000
     47 H          -0.3153   -2.5717   -4.1632 H       1  UNL1        0.0000
     48 H           2.2029   -4.3531   -1.4634 H       1  UNL1        0.0000
     49 H           1.1402   -2.5830    3.7784 H       1  UNL1        0.0000
     50 H          -1.1705   -1.3344   -0.3859 H       1  UNL1        0.0000
     51 H          -1.1107   -1.4620   -0.4992 H       1  UNL1        0.0000
     52 H          -1.7830    2.1531   -3.0965 H       1  UNL1        0.0000
     53 H           2.1898   -2.3998   -1.9204 H       1  UNL1        0.0000
     54 H          -0.9329    1.9988   -0.9030 H       1  UNL1        0.0000
     55 H           1.0399   -1.4028   -1.3292 H       1  UNL1        0.0000
     56 H           3.1236    2.0940    0.0753 H       1  UNL1        0.0000
     57 H           2.2063   -1.2935   -3.1912 H       1  UNL1        0.0000
     58 H          -3.7111   -0.5689   -2.2942 H       1  UNL1        0.0000
     59 H           1.5064   -0.4320    2.2746 H       1  UNL1        0.0000
     60 H          -2.6398    2.1717    1.7743 H       1  UNL1        0.0000
     61 H           3.3951    2.2317   -1.9481 H       1  UNL1        0.0000
     62 H           2.6913    3.0857   -0.9898 H       1  UNL1        0.0000
     63 H          -0.1592    0.8676    3.0957 H       1  UNL1        0.0000
     64 H           0.8856   -3.9278    1.2826 H       1  UNL1        0.0000
     65 H          -2.3815   -3.2759    0.9847 H       1  UNL1        0.0000
     66 H          -1.6002    1.4517    2.6215 H       1  UNL1        0.0000
     67 H           2.8918    1.6262    1.7766 H       1  UNL1        0.0000
     68 EU          0.5437    2.5513   -2.1900 Eu      1  UNL1        0.0000
@<TRIPOS>BOND
     1     1     2    2
     2     2     3   am
     3     3     4    1
     4     3     5    1
     5     5     6    1
     6     6     7    1
     7     2     8    1
     8     8     9   ar
     9     9    10   ar
    10     8    11   ar
    11    11    12   ar
    12    12    13   ar
    13    10    13   ar
    14    13    14   ar
    15    14    15   ar
    16    15    16   ar
    17    16    17   ar
    18    12    17   ar
    19    17    18   ar
    20    18    19   ar
    21    19    20    1
    22    20    21   ar
    23    21    22   ar
    24    22    23    1
    25    23    24    1
    26    23    25    1
    27    23    26    1
    28    26    27    1
    29    27    28    1
    30    28    29    1
    31    28    30    1
    32    22    31   ar
    33    28    31    1
    34    31    32   ar
    35    32    33   ar
    36    20    33   ar
    37    19    34   ar
    38    34    35   ar
    39    16    35   ar
    40     4    36    1
    41     4    37    1
    42     4    38    1
    43     5    39    1
    44     5    40    1
    45     6    41    1
    46     6    42    1
    47     7    43    1
    48     7    44    1
    49     7    45    1
    50     9    46    1
    51    10    47    1
    52    14    48    1
    53    15    49    1
    54    24    50    1
    55    24    51    1
    56    24    52    1
    57    25    53    1
    58    25    54    1
    59    25    55    1
    60    26    56    1
    61    26    57    1
    62    27    58    1
    63    27    59    1
    64    29    60    1
    65    29    61    1
    66    29    62    1
    67    30    63    1
    68    30    64    1
    69    30    65    1
    70    34    66    1
    71    35    67    1
    72    68     1    1
    73    68    33    1
    74    68    18    1
    75    68    11    1
@<TRIPOS>MOLECULE
*****
 68 75 0 0 0
SMALL
GASTEIGER

@<TRIPOS>ATOM
      1 O          -2.3122    0.7690   -2.2460 O.2     1  UNL1        0.0000
      2 C          -2.0888    0.3739   -1.5467 C.2     1  UNL1        0.0000
      3 N          -2.2550   -1.7696    1.9911 N.am    1  UNL1        0.0000
      4 C          -3.3187   -1.7857    2.6954 C.3     1  UNL1        0.0000
      5 C          -0.2262   -3.0606    2.7498 C.3     1  UNL1        0.0000
      6 C           1.0440   -2.3065    1.9768 C.3     1  UNL1        0.0000
      7 C          -0.3512   -1.9618   -2.1011 C.3     1  UNL1        0.0000
      8 C           0.8266    2.2510   -1.4041 C.ar    1  UNL1        0.0000
      9 C           1.7708    1.2773   -1.2292 C.ar    1  UNL1        0.0000
     10 C           0.3088   -1.2174   -3.8884 C.ar    1  UNL1        0.0000
     11 N           0.8143    2.6172   -2.1545 N.ar    1  UNL1        0.0000
     12 C           1.7025    0.9426   -3.2140 C.ar    1  UNL1        0.0000
     13 C           0.6770   -1.3354   -3.9964 C.ar    1  UNL1        0.0000
     14 C           1.1039   -3.8540   -1.4226 C.ar    1  UNL1        0.0000
     15 C           1.4627   -2.6694    0.0322 C.ar    1  UNL1        0.0000
     16 C           2.2632   -1.4578   -0.0448 C.ar    1  UNL1        0.0000
     17 C           3.0994   -0.3090   -0.5696 C.ar    1  UNL1        0.0000
     18 N           2.5913    0.5702    0.4095 N.ar    1  UNL1        0.0000
     19 C          -0.0406   -0.4790    1.4534 C.ar    1  UNL1        0.0000
     20 C          -0.9098   -0.1418    1.9360 C.ar    1  UNL1        0.0000
     21 N          -2.8804   -1.0316    0.4667 N.ar    1  UNL1        0.0000
     22 C          -3.1070   -0.8960   -0.3430 C.ar    1  UNL1        0.0000
     23 C          -1.9105   -1.5559   -0.8408 C.3     1  UNL1        0.0000
     24 C          -0.1310    0.0795   -1.4519 C.3     1  UNL1        0.0000
     25 C           0.0415   -0.1140   -1.0893 C.3     1  UNL1        0.0000
     26 C           0.0633    0.2084   -0.9215 C.3     1  UNL1        0.0000
     27 C          -1.7152    0.8008    0.3787 C.3     1  UNL1        0.0000
     28 C          -0.1777    1.4136    0.6171 C.3     1  UNL1        0.0000
     29 C           0.8068    2.4296    0.6622 C.3     1  UNL1        0.0000
     30 C          -0.6976   -2.4421    0.9274 C.3     1  UNL1        0.0000
     31 C          -2.6464    1.7917   -0.1500 C.ar    1  UNL1        0.0000
     32 N          -2.5672    3.1739    0.1615 N.ar    1  UNL1        0.0000
     33 N          -1.3299    2.9626    0.8760 N.ar    1  UNL1        0.0000
     34 C          -0.0820   -0.4564    1.3656 C.ar    1  UNL1        0.0000
     35 C           1.3767   -0.8023    0.4864 C.ar    1  UNL1        0.0000
     36 H          -3.1868   -0.9427    2.7855 H       1  UNL1        0.0000
     37 H          -1.9985   -3.4011    3.4454 H       1  UNL1        0.0000
     38 H          -1.9095   -0.4613    3.5160 H       1  UNL1        0.0000
     39 H           2.1575   -4.3980    0.4376 H       1  UNL1        0.0000
     40 H          -1.1894   -1.9013    2.7296 H       1  UNL1        0.0000
     41 H           2.8094   -1.8243    2.6770 H       1  UNL1        0.0000
     42 H          -0.8967   -3.5184   -0.4819 H       1  UNL1        0.0000
     43 H          -0.4955    0.6667   -3.1828 H       1  UNL1        0.0000
     44 H           1.9240   -0.4610   -2.0215 H       1  UNL1        0.0000
     45 H          -0.0358   -2.6083   -1.9494 H       1  UNL1        0.0000
     46 H           1.4769    0.9679    1.5836 H       1  UNL1        0.0000
     47 H          -0.3153   -2.5717   -4.1632 H       1  UNL1        0.0000
     48 H           2.2029   -4.3531   -1.4634 H       1  UNL1        0.0000
     49 H           1.1402   -2.5830    3.7784 H       1  UNL1        0.0000
     50 H          -1.1705   -1.3344   -0.3859 H       1  UNL1        0.0000
     51 H          -1.1107   -1.4620   -0.4992 H       1  UNL1        0.0000
     52 H          -1.7830    2.1531   -3.0965 H       1  UNL1        0.0000
     53 H           2.1898   -2.3998   -1.9204 H       1  UNL1        0.0000
     54 H          -0.9329    1.9988   -0.9030 H       1  UNL1        0.0000
     55 H           1.0399   -1.4028   -1.3292 H       1  UNL1        0.0000
     56 H           3.1236    2.0940    0.0753 H       1  UNL1        0.0000
     57 H           2.2063   -1.2935   -3.1912 H       1  UNL1        0.0000
     58 H          -3.7111   -0.5689   -2.2942 H       1  UNL1        0.0000
     59 H           1.5064   -0.4320    2.2746 H       1  UNL1        0.0000
     60 H          -2.6398    2.1717    1.7743 H       1  UNL1        0.0000
     61 H           3.3951    2.2317   -1.9481 H       1  UNL1        0.0000
     62 H           2.6913    3.0857   -0.9898 H       1  UNL1        0.0000
     63 H          -0.1592    0.8676    3.0957 H       1  UNL1        0.0000
     64 H           0.8856   -3.9278    1.2826 H       1  UNL1        0.0000
     65 H          -2.3815   -3.2759    0.9847 H       1  UNL1        0.0000
     66 H          -1.6002    1.4517    2.6215 H       1  UNL1        0.0000
     67 H           2.8918    1.6262    1.7766 H       1  UNL1        0.0000
     68 EU          0.5437    2.5513   -2.1900 Eu      1  UNL1        0.0000
@<TRIPOS>BOND
     1     1     2    2
     2     2     3   am
     3     3     4    1
     4     3     5    1
     5     5     6    1
     6     6     7    1
     7     2     8    1
     8     8     9   ar
     9     9    10   ar
    10     8    11   ar
    11    11    12   ar
    12    12    13   ar
    13    10    13   ar
    14    13    14   ar
    15    14    15   ar
    16    15    16   ar
    17    16    17   ar
    18    12    17   ar
    19    17    18   ar
    20    18    19   ar
    21    19    20    1
    22    20    21   ar
    23    21    22   ar
    24    22    23    1
    25    23    24    1
    26    23    25    1
    27    23    26    1
    28    26    27    1
    29    27    28    1
    30    28    29    1
    31    28    30    1
    32    22    31   ar
    33    28    31    1
    34    31    32   ar
    35    32    33   ar
    36    20    33   ar
    37    19    34   ar
    38    34    35   ar
    39    16    35   ar
    40     4    36    1
    41     4    37    1
    42     4    38    1
    43     5    39    1
    44     5    40    1
    45     6    41    1
    46     6    42    1
    47     7    43    1
    48     7    44    1
    49     7    45    1
    50     9    46    1
    51    10    47    1
    52    14    48    1
    53    15    49    1
    54    24    50    1
    55    24    51    1
    56    24    52    1
    57    25    53    1
    58    25    54    1
    59    25    55    1
    60    26    56    1
    61    26    57    1
    62    27    58    1
    63    27    59    1
    64    29    60    1
    65    29    61    1
    66    29    62    1
    67    30    63    1
    68    30    64    1
    69    30    65    1
    70    34    66    1
    71    35    67    1
    72    68     1    1
    73    68    33    1
    74    68    18    1
    75    68    11    1
@<TRIPOS>MOLECULE
*****
 68 75 0 0 0
SMALL
GASTEIGER

@<TRIPOS>ATOM
      1 O          -2.3122    0.7690   -2.2460 O.2     1  UNL1        0.0000
      2 C          -2.0888    0.3739   -1.5467 C.2     1  UNL1        0.0000
      3 N          -2.2550   -1.7696    1.9911 N.am    1  UNL1        0.0000
      4 C          -3.3187   -1.7857    2.6954 C.3     1  UNL1        0.0000
      5 C          -0.2262   -3.0606    2.7498 C.3     1  UNL1        0.0000
      6 C           1.0440   -2.3065    1.9768 C.3     1  UNL1        0.0000
      7 C          -0.3512   -1.9618   -2.1011 C.3     1  UNL1        0.0000
      8 C           0.8266    2.2510   -1.4041 C.ar    1  UNL1        0.0000
      9 C           1.7708    1.2773   -1.2292 C.ar    1  UNL1        0.0000
     10 C           0.3088   -1.2174   -3.8884 C.ar    1  UNL1        0.0000
     11 N           0.8143    2.6172   -2.1545 N.ar    1  UNL1        0.0000
     12 C           1.7025    0.9426   -3.2140 C.ar    1  UNL1        0.0000
     13 C           0.6770   -1.3354   -3.9964 C.ar    1  UNL1        0.0000
     14 C           1.1039   -3.8540   -1.4226 C.ar    1  UNL1        0.0000
     15 C           1.4627   -2.6694    0.0322 C.ar    1  UNL1        0.0000
     16 C           2.2632   -1.4578   -0.0448 C.ar    1  UNL1        0.0000
     17 C           3.0994   -0.3090   -0.5696 C.ar    1  UNL1        0.0000
     18 N           2.5913    0.5702    0.4095 N.ar    1  UNL1        0.0000
     19 C          -0.0406   -0.4790    1.4534 C.ar    1  UNL1        0.0000
     20 C          -0.9098   -0.1418    1.9360 C.ar    1  UNL1        0.0000
     21 N          -2.8804   -1.0316    0.4667 N.ar    1  UNL1        0.0000
     22 C          -3.1070   -0.8960   -0.3430 C.ar    1  UNL1        0.0000
     23 C          -1.9105   -1.5559   -0.8408 C.3     1  UNL1        0.0000
     24 C          -0.1310    0.0795   -1.4519 C.3     1  UNL1        0.0000
     25 C           0.0415   -0.1140   -1.0893 C.3     1  UNL1        0.0000
     26 C           0.0633    0.2084   -0.9215 C.3     1  UNL1        0.0000
     27 C          -1.7152    0.8008    0.3787 C.3     1  UNL1        0.0000
     28 C          -0.1777    1.4136    0.6171 C.3     1  UNL1        0.0000
     29 C           0.8068    2.4296    0.6622 C.3     1  UNL1        0.0000
     30 C          -0.6976   -2.4421    0.9274 C.3     1  UNL1        0.0000
     31 C          -2.6464    1.7917   -0.1500 C.ar    1  UNL1        0.0000
     32 N          -2.5672    3.1739    0.1615 N.ar    1  UNL1        0.0000
     33 N          -1.3299    2.9626    0.8760 N.ar    1  UNL1        0.0000
     34 C          -0.0820   -0.4564    1.3656 C.ar    1  UNL1        0.0000
     35 C           1.3767   -0.8023    0.4864 C.ar    1  UNL1        0.0000
     36 H          -3.1868   -0.9427    2.7855 H       1  UNL1        0.0000
     37 H          -1.9985   -3.4011    3.4454 H       1  UNL1        0.0000
     38 H          -1.9095   -0.4613    3.5160 H       1  UNL1        0.0000
     39 H           2.1575   -4.3980    0.4376 H       1  UNL1        0.0000
     40 H          -1.1894   -1.9013    2.7296 H       1  UNL1        0.0000
     41 H           2.8094   -1.8243    2.6770 H       1  UNL1        0.0000
     42 H          -0.8967   -3.5184   -0.4819 H       1  UNL1        0.0000
     43 H          -0.4955    0.6667   -3.1828 H       1  UNL1        0.0000
     44 H           1.9240   -0.4610   -2.0215 H       1  UNL1        0.0000
     45 H          -0.0358   -2.6083   -1.9494 H       1  UNL1        0.0000
     46 H           1.4769    0.9679    1.5836 H       1  UNL1        0.0000
     47 H          -0.3153   -2.5717   -4.1632 H       1  UNL1        0.0000
     48 H           2.2029   -4.3531   -1.4634 H       1  UNL1        0.0000
     49 H           1.1402   -2.5830    3.7784 H       1  UNL1        0.0000
     50 H          -1.1705   -1.3344   -0.3859 H       1  UNL1        0.0000
     51 H          -1.1107   -1.4620   -0.4992 H       1  UNL1        0.0000
     52 H          -1.7830    2.1531   -3.0965 H       1  UNL1        0.0000
     53 H           2.1898   -2.3998   -1.9204 H       1  UNL1        0.0000
     54 H          -0.9329    1.9988   -0.9030 H       1  UNL1        0.0000
     55 H           1.0399   -1.4028   -1.3292 H       1  UNL1        0.0000
     56 H           3.1236    2.0940    0.0753 H       1  UNL1        0.0000
     57 H           2.2063   -1.2935   -3.1912 H       1  UNL1        0.0000
     58 H          -3.7111   -0.5689   -2.2942 H       1  UNL1        0.0000
     59 H           1.5064   -0.4320    2.2746 H       1  UNL1        0.0000
     60 H          -2.6398    2.1717    1.7743 H       1  UNL1        0.0000
     61 H           3.3951    2.2317   -1.9481 H       1  UNL1        0.0000
     62 H           2.6913    3.0857   -0.9898 H       1  UNL1        0.0000
     63 H          -0.1592    0.8676    3.0957 H       1  UNL1        0.0000
     64 H           0.8856   -3.9278    1.2826 H       1  UNL1        0.0000
     65 H          -2.3815   -3.2759    0.9847 H       1  UNL1        0.0000
     66 H          -1.6002    1.4517    2.6215 H       1  UNL1        0.0000
     67 H           2.8918    1.6262    1.7766 H       1  UNL1        0.0000
     68 EU          0.5437    2.5513   -2.1900 Eu      1  UNL1        0.0000
@<TRIPOS>BOND
     1     1     2    2
     2     2     3   am
     3     3     4    1
     4     3     5    1
     5     5     6    1
     6     6     7    1
     7     2     8    1
     8     8     9   ar
     9     9    10   ar
    10     8    11   ar
    11    11    12   ar
    12    12    13   ar
    13    10    13   ar
    14    13    14   ar
    15    14    15   ar
    16    15    16   ar
    17    16    17   ar
    18    12    17   ar
    19    17    18   ar
    20    18    19   ar
    21    19    20    1
    22    20    21   ar
    23    21    22   ar
    24    22    23    1
    25    23    24    1
    26    23    25    1
    27    23    26    1
    28    26    27    1
    29    27    28    1
    30    28    29    1
    31    28    30    1
    32    22    31   ar
    33    28    31    1
    34    31    32   ar
    35    32    33   ar
    36    20    33   ar
    37    19    34   ar
    38    34    35   ar
    39    16    35   ar
    40     4    36    1
    41     4    37    1
    42     4    38    1
    43     5    39    1
    44     5    40    1
    45     6    41    1
    46     6    42    1
    47     7    43    1
    48     7    44    1
    49     7    45    1
    50     9    46    1
    51    10    47    1
    52    14    48    1
    53    15    49    1
    54    24    50    1
    55    24    51    1
    56    24    52    1
    57    25    53    1
    58    25    54    1
    59    25    55    1
    60    26    56    1
    61    26    57    1
    62    27    58    1
    63    27    59    1
    64    29    60    1
    65    29    61    1
    66    29    62    1
    67    30    63    1
    68    30    64    1
    69    30    65    1
    70    34    66    1
    71    35    67    1
    72    68     1    1
    73    68    33    1
    74    68    18    1
    75    68    11    1
@<TRIPOS>MOLECULE
*****
 68 75 0 0 0
SMALL
GASTEIGER

@<TRIPOS>ATOM
      1 O          -2.3122    0.7690   -2.2460 O.2     1  UNL1        0.0000
      2 C          -2.0888    0.3739   -1.5467 C.2     1  UNL1        0.0000
      3 N          -2.2550   -1.7696    1.9911 N.am    1  UNL1        0.0000
      4 C          -3.3187   -1.7857    2.6954 C.3     1  UNL1        0.0000
      5 C          -0.2262   -3.0606    2.7498 C.3     1  UNL1        0.0000
      6 C           1.0440   -2.3065    1.9768 C.3     1  UNL1        0.0000
      7 C          -0.3512   -1.9618   -2.1011 C.3     1  UNL1        0.0000
      8 C           0.8266    2.2510   -1.4041 C.ar    1  UNL1        0.0000
      9 C           1.7708    1.2773   -1.2292 C.ar    1  UNL1        0.0000
     10 C           0.3088   -1.2174   -3.8884 C.ar    1  UNL1        0.0000
     11 N           0.8143    2.6172   -2.1545 N.ar    1  UNL1        0.0000
     12 C           1.7025    0.9426   -3.2140 C.ar    1  UNL1        0.0000
     13 C           0.6770   -1.3354   -3.9964 C.ar    1  UNL1        0.0000
     14 C           1.1039   -3.8540   -1.4226 C.ar    1  UNL1        0.0000
     15 C           1.4627   -2.6694    0.0322 C.ar    1  UNL1        0.0000
     16 C           2.2632   -1.4578   -0.0448 C.ar    1  UNL1        0.0000
     17 C           3.0994   -0.3090   -0.5696 C.ar    1  UNL1        0.0000
     18 N           2.5913    0.5702    0.4095 N.ar    1  UNL1        0.0000
     19 C          -0.0406   -0.4790    1.4534 C.ar    1  UNL1        0.0000
     20 C          -0.9098   -0.1418    1.9360 C.ar    1  UNL1        0.0000
     21 N          -2.8804   -1.0316    0.4667 N.ar    1  UNL1        0.0000
     22 C          -3.1070   -0.8960   -0.3430 C.ar    1  UNL1        0.0000
     23 C          -1.9105   -1.5559   -0.8408 C.3     1  UNL1        0.0000
     24 C          -0.1310    0.0795   -1.4519 C.3     1  UNL1        0.0000
     25 C           0.0415   -0.1140   -1.0893 C.3     1  UNL1        0.0000
     26 C           0.0633    0.2084   -0.9215 C.3     1  UNL1        0.0000
     27 C          -1.7152    0.8008    0.3787 C.3     1  UNL1        0.0000
     28 C          -0.1777    1.4136    0.6171 C.3     1  UNL1        0.0000
     29 C           0.8068    2.4296    0.6622 C.3     1  UNL1        0.0000
     30 C          -0.6976   -2.4421    0.9274 C.3     1  UNL1        0.0000
     31 C          -2.6464    1.7917   -0.1500 C.ar    1  UNL1        0.0000
     32 N          -2.5672    3.1739    0.1615 N.ar    1  UNL1        0.0000
     33 N          -1.3299    2.9626    0.8760 N.ar    1  UNL1        0.0000
     34 C          -0.0820   -0.4564    1.3656 C.ar    1  UNL1        0.0000
     35 C           1.3767   -0.8023    0.4864 C.ar    1  UNL1        0.0000
     36 H          -3.1868   -0.9427    2.7855 H       1  UNL1        0.0000
     37 H          -1.9985   -3.4011    3.4454 H       1  UNL1        0.0000
     38 H          -1.9095   -0.4613    3.5160 H       1  UNL1        0.0000
     39 H           2.1575   -4.3980    0.4376 H       1  UNL1        0.0000
     40 H          -1.1894   -1.9013    2.7296 H       1  UNL1        0.0000
     41 H           2.8094   -1.8243    2.6770 H       1  UNL1        0.0000
     42 H          -0.8967   -3.5184   -0.4819 H       1  UNL1        0.0000
     43 H          -0.4955    0.6667   -3.1828 H       1  UNL1        0.0000
     44 H           1.9240   -0.4610   -2.0215 H       1  UNL1        0.0000
     45 H          -0.0358   -2.6083   -1.9494 H       1  UNL1        0.0000
     46 H           1.4769    0.9679    1.5836 H       1  UNL1        0.0000
     47 H          -0.3153   -2.5717   -4.1632 H       1  UNL1        0.0000
     48 H           2.2029   -4.3531   -1.4634 H       1  UNL1        0.0000
     49 H           1.1402   -2.5830    3.7784 H       1  UNL1        0.0000
     50 H          -1.1705   -1.3344   -0.3859 H       1  UNL1        0.0000
     51 H          -1.1107   -1.4620   -0.4992 H       1  UNL1        0.0000
     52 H          -1.7830    2.1531   -3.0965 H       1  UNL1        0.0000
     53 H           2.1898   -2.3998   -1.9204 H       1  UNL1        0.0000
     54 H          -0.9329    1.9988   -0.9030 H       1  UNL1        0.0000
     55 H           1.0399   -1.4028   -1.3292 H       1  UNL1        0.0000
     56 H           3.1236    2.0940    0.0753 H       1  UNL1        0.0000
     57 H           2.2063   -1.2935   -3.1912 H       1  UNL1        0.0000
     58 H          -3.7111   -0.5689   -2.2942 H       1  UNL1        0.0000
     59 H           1.5064   -0.4320    2.2746 H       1  UNL1        0.0000
     60 H          -2.6398    2.1717    1.7743 H       1  UNL1        0.0000
     61 H           3.3951    2.2317   -1.9481 H       1  UNL1        0.0000
     62 H           2.6913    3.0857   -0.9898 H       1  UNL1        0.0000
     63 H          -0.1592    0.8676    3.0957 H       1  UNL1        0.0000
     64 H           0.8856   -3.9278    1.2826 H       1  UNL1        0.0000
     65 H          -2.3815   -3.2759    0.9847 H       1  UNL1        0.0000
     66 H          -1.6002    1.4517    2.6215 H       1  UNL1        0.0000
     67 H           2.8918    1.6262    1.7766 H       1  UNL1        0.0000
     68 EU          0.5437    2.5513   -2.1900 Eu      1  UNL1        0.0000
@<TRIPOS>BOND
     1     1     2    2
     2     2     3   am
     3     3     4    1
     4     3     5    1
     5     5     6    1
     6     6     7    1
     7     2     8    1
     8     8     9   ar
     9     9    10   ar
    10     8    11   ar
    11    11    12   ar
    12    12    13   ar
    13    10    13   ar
    14    13    14   ar
    15    14    15   ar
    16    15    16   ar
    17    16    17   ar
    18    12    17   ar
    19    17    18   ar
    20    18    19   ar
    21    19    20    1
    22    20    21   ar
    23    21    22   ar
    24    22    23    1
    25    23    24    1
    26    23    25    1
    27    23    26    1
    28    26    27    1
    29    27    28    1
    30    28    29    1
    31    28    30    1
    32    22    31   ar
    33    28    31    1
    34    31    32   ar
    35    32    33   ar
    36    20    33   ar
    37    19    34   ar
    38    34    35   ar
    39    16    35   ar
    40     4    36    1
    41     4    37    1
    42     4    38    1
    43     5    39    1
    44     5    40    1
    45     6    41    1
    46     6    42    1
    47     7    43    1
    48     7    44    1
    49     7    45    1
    50     9    46    1
    51    10    47    1
    52    14    48    1
    53    15    49    1
    54    24    50    1
    55    24    51    1
    56    24    52    1
    57    25    53    1
    58    25    54    1
    59    25    55    1
    60    26    56    1
    61    26    57    1
    62    27    58    1
    63    27    59    1
    64    29    60    1
    65    29    61    1
    66    29    62    1
    67    30    63    1
    68    30    64    1
    69    30    65    1
    70    34    66    1
    71    35    67    1
    72    68     1    1
    73    68    33    1
    74    68    18    1
    75    68    11    1
@<TRIPOS>MOLECULE
*****
 68 75 0 0 0
SMALL
GASTEIGER

@<TRIPOS>ATOM
      1 O          -2.3122    0.7690   -2.2460 O.2     1  UNL1        0.0000
      2 C          -2.0888    0.3739   -1.5467 C.2     1  UNL1        0.0000
      3 N          -2.2550   -1.7696    1.9911 N.am    1  UNL1        0.0000
      4 C          -3.3187   -1.7857    2.6954 C.3     1  UNL1        0.0000
      5 C          -0.2262   -3.0606    2.7498 C.3     1  UNL1        0.0000
      6 C           1.0440   -2.3065    1.9768 C.3     1  UNL1        0.0000
      7 C          -0.3512   -1.9618   -2.1011 C.3     1  UNL1        0.0000
      8 C           0.8266    2.2510   -1.4041 C.ar    1  UNL1        0.0000
      9 C           1.7708    1.2773   -1.2292 C.ar    1  UNL1        0.0000
     10 C           0.3088   -1.2174   -3.8884 C.ar    1  UNL1        0.0000
     11 N           0.8143    2.6172   -2.1545 N.ar    1  UNL1        0.0000
     12 C           1.7025    0.9426   -3.2140 C.ar    1  UNL1        0.0000
     13 C           0.6770   -1.3354   -3.9964 C.ar    1  UNL1        0.0000
     14 C           1.1039   -3.8540   -1.4226 C.ar    1  UNL1        0.0000
     15 C           1.4627   -2.6694    0.0322 C.ar    1  UNL1        0.0000
     16 C           2.2632   -1.4578   -0.0448 C.ar    1  UNL1        0.0000
     17 C           3.0994   -0.3090   -0.5696 C.ar    1  UNL1        0.0000
     18 N           2.5913    0.5702    0.4095 N.ar    1  UNL1        0.0000
     19 C          -0.0406   -0.4790    1.4534 C.ar    1  UNL1        0.0000
     20 C          -0.9098   -0.1418    1.9360 C.ar    1  UNL1        0.0000
     21 N          -2.8804   -1.0316    0.4667 N.ar    1  UNL1        0.0000
     22 C          -3.1070   -0.8960   -0.3430 C.ar    1  UNL1        0.0000
     23 C          -1.9105   -1.5559   -0.8408 C.3     1  UNL1        0.0000
     24 C          -0.1310    0.0795   -1.4519 C.3     1  UNL1        0.0000
     25 C           0.0415   -0.1140   -1.0893 C.3     1  UNL1        0.0000
     26 C           0.0633    0.2084   -0.9215 C.3     1  UNL1        0.0000
     27 C          -1.7152    0.8008    0.3787 C.3     1  UNL1        0.0000
     28 C          -0.1777    1.4136    0.6171 C.3     1  UNL1        0.0000
     29 C           0.8068    2.4296    0.6622 C.3     1  UNL1        0.0000
     30 C          -0.6976   -2.4421    0.9274 C.3     1  UNL1        0.0000
     31 C          -2.6464    1.7917   -0.1500 C.ar    1  UNL1        0.0000
     32 N          -2.5672    3.1739    0.1615 N.ar    1  UNL1        0.0000
     33 N          -1.3299    2.9626    0.8760 N.ar    1  UNL1        0.0000
     34 C          -0.0820   -0.4564    1.3656 C.ar    1  UNL1        0.0000
     35 C           1.3767   -0.8023    0.4864 C.ar    1  UNL1        0.0000
     36 H          -3.1868   -0.9427    2.7855 H       1  UNL1        0.0000
     37 H          -1.9985   -3.4011    3.4454 H       1  UNL1        0.0000
     38 H          -1.9095   -0.4613    3.5160 H       1  UNL1        0.0000
     39 H           2.1575   -4.3980    0.4376 H       1  UNL1        0.0000
     40 H          -1.1894   -1.9013    2.7296 H       1  UNL1        0.0000
     41 H           2.8094   -1.8243    2.6770 H       1  UNL1        0.0000
     42 H          -0.8967   -3.5184   -0.4819 H       1  UNL1        0.0000
     43 H          -0.4955    0.6667   -3.1828 H       1  UNL1        0.0000
     44 H           1.9240   -0.4610   -2.0215 H       1  UNL1        0.0000
     45 H          -0.0358   -2.6083   -1.9494 H       1  UNL1        0.0000
     46 H           1.4769    0.9679    1.5836 H       1  UNL1        0.0000
     47 H          -0.3153   -2.5717   -4.1632 H       1  UNL1        0.0000
     48 H           2.2029   -4.3531   -1.4634 H       1  UNL1        0.0000
     49 H           1.1402   -2.5830    3.7784 H       1  UNL1        0.0000
     50 H          -1.1705   -1.3344   -0.3859 H       1  UNL1        0.0000
     51 H          -1.1107   -1.4620   -0.4992 H       1  UNL1        0.0000
     52 H          -1.7830    2.1531   -3.0965 H       1  UNL1        0.0000
     53 H           2.1898   -2.3998   -1.9204 H       1  UNL1        0.0000
     54 H          -0.9329    1.9988   -0.9030 H       1  UNL1        0.0000
     55 H           1.0399   -1.4028   -1.3292 H       1  UNL1        0.0000
     56 H           3.1236    2.0940    0.0753 H       1  UNL1        0.0000
     57 H           2.2063   -1.2935   -3.1912 H       1  UNL1        0.0000
     58 H          -3.7111   -0.5689   -2.2942 H       1  UNL1        0.0000
     59 H           1.5064   -0.4320    2.2746 H       1  UNL1        0.0000
     60 H          -2.6398    2.1717    1.7743 H       1  UNL1        0.0000
     61 H           3.3951    2.2317   -1.9481 H       1  UNL1        0.0000
     62 H           2.6913    3.0857   -0.9898 H       1  UNL1        0.0000
     63 H          -0.1592    0.8676    3.0957 H       1  UNL1        0.0000
     64 H           0.8856   -3.9278    1.2826 H       1  UNL1        0.0000
     65 H          -2.3815   -3.2759    0.9847 H       1  UNL1        0.0000
     66 H          -1.6002    1.4517    2.6215 H       1  UNL1        0.0000
     67 H           2.8918    1.6262    1.7766 H       1  UNL1        0.0000
     68 EU          0.5437    2.5513   -2.1900 Eu      1  UNL1        0.0000
@<TRIPOS>BOND
     1     1     2    2
     2     2     3   am
     3     3     4    1
     4     3     5    1
     5     5     6    1
     6     6     7    1
     7     2     8    1
     8     8     9   ar
     9     9    10   ar
    10     8    11   ar
    11    11    12   ar
    12    12    13   ar
    13    10    13   ar
    14    13    14   ar
    15    14    15   ar
    16    15    16   ar
    17    16    17   ar
    18    12    17   ar
    19    17    18   ar
    20    18    19   ar
    21    19    20    1
    22    20    21   ar
    23    21    22   ar
    24    22    23    1
    25    23    24    1
    26    23    25    1
    27    23    26    1
    28    26    27    1
    29    27    28    1
    30    28    29    1
    31    28    30    1
    32    22    31   ar
    33    28    31    1
    34    31    32   ar
    35    32    33   ar
    36    20    33   ar
    37    19    34   ar
    38    34    35   ar
    39    16    35   ar
    40     4    36    1
    41     4    37    1
    42     4    38    1
    43     5    39    1
    44     5    40    1
    45     6    41    1
    46     6    42    1
    47     7    43    1
    48     7    44    1
    49     7    45    1
    50     9    46    1
    51    10    47    1
    52    14    48    1
    53    15    49    1
    54    24    50    1
    55    24    51    1
    56    24    52    1
    57    25    53    1
    58    25    54    1
    59    25    55    1
    60    26    56    1
    61    26    57    1
    62    27    58    1
    63    27    59    1
    64    29    60    1
    65    29    61    1
    66    29    62    1
    67    30    63    1
    68    30    64    1
    69    30    65    1
    70    34    66    1
    71    35    67    1
    72    68     1    1
    73    68    33    1
    74    68    18    1
    75    68    11    1
@<TRIPOS>MOLECULE
*****
 68 75 0 0 0
SMALL
GASTEIGER

@<TRIPOS>ATOM
      1 O          -2.3122    0.7690   -2.2460 O.2     1  UNL1        0.0000
      2 C          -2.0888    0.3739   -1.5467 C.2     1  UNL1        0.0000
      3 N          -2.2550   -1.7696    1.9911 N.am    1  UNL1        0.0000
      4 C          -3.3187   -1.7857    2.6954 C.3     1  UNL1        0.0000
      5 C          -0.2262   -3.0606    2.7498 C.3     1  UNL1        0.0000
      6 C           1.0440   -2.3065    1.9768 C.3     1  UNL1        0.0000
      7 C          -0.3512   -1.9618   -2.1011 C.3     1  UNL1        0.0000
      8 C           0.8266    2.2510   -1.4041 C.ar    1  UNL1        0.0000
      9 C           1.7708    1.2773   -1.2292 C.ar    1  UNL1        0.0000
     10 C           0.3088   -1.2174   -3.8884 C.ar    1  UNL1        0.0000
     11 N           0.8143    2.6172   -2.1545 N.ar    1  UNL1        0.0000
     12 C           1.7025    0.9426   -3.2140 C.ar    1  UNL1        0.0000
     13 C           0.6770   -1.3354   -3.9964 C.ar    1  UNL1        0.0000
     14 C           1.1039   -3.8540   -1.4226 C.ar    1  UNL1        0.0000
     15 C           1.4627   -2.6694    0.0322 C.ar    1  UNL1        0.0000
     16 C           2.2632   -1.4578   -0.0448 C.ar    1  UNL1        0.0000
     17 C           3.0994   -0.3090   -0.5696 C.ar    1  UNL1        0.0000
     18 N           2.5913    0.5702    0.4095 N.ar    1  UNL1        0.0000
     19 C          -0.0406   -0.4790    1.4534 C.ar    1  UNL1        0.0000
     20 C          -0.9098   -0.1418    1.9360 C.ar    1  UNL1        0.0000
     21 N          -2.8804   -1.0316    0.4667 N.ar    1  UNL1        0.0000
     22 C          -3.1070   -0.8960   -0.3430 C.ar    1  UNL1        0.0000
     23 C          -1.9105   -1.5559   -0.8408 C.3     1  UNL1        0.0000
     24 C          -0.1310    0.0795   -1.4519 C.3     1  UNL1        0.0000
     25 C           0.0415   -0.1140   -1.0893 C.3     1  UNL1        0.0000
     26 C           0.0633    0.2084   -0.9215 C.3     1  UNL1        0.0000
     27 C          -1.7152    0.8008    0.3787 C.3     1  UNL1        0.0000
     28 C          -0.1777    1.4136    0.6171 C.3     1  UNL1        0.0000
     29 C           0.8068    2.4296    0.6622 C.3     1  UNL1        0.0000
     30 C          -0.6976   -2.4421    0.9274 C.3     1  UNL1        0.0000
     31 C          -2.6464    1.7917   -0.1500 C.ar    1  UNL1        0.0000
     32 N          -2.5672    3.1739    0.1615 N.ar    1  UNL1        0.0000
     33 N          -1.3299    2.9626    0.8760 N.ar    1  UNL1        0.0000
     34 C          -0.0820   -0.4564    1.3656 C.ar    1  UNL1        0.0000
     35 C           1.3767   -0.8023    0.4864 C.ar    1  UNL1        0.0000
     36 H          -3.1868   -0.9427    2.7855 H       1  UNL1        0.0000
     37 H          -1.9985   -3.4011    3.4454 H       1  UNL1        0.0000
     38 H          -1.9095   -0.4613    3.5160 H       1  UNL1        0.0000
     39 H           2.1575   -4.3980    0.4376 H       1  UNL1        0.0000
     40 H          -1.1894   -1.9013    2.7296 H       1  UNL1        0.0000
     41 H           2.8094   -1.8243    2.6770 H       1  UNL1        0.0000
     42 H          -0.8967   -3.5184   -0.4819 H       1  UNL1        0.0000
     43 H          -0.4955    0.6667   -3.1828 H       1  UNL1        0.0000
     44 H           1.9240   -0.4610   -2.0215 H       1  UNL1        0.0000
     45 H          -0.0358   -2.6083   -1.9494 H       1  UNL1        0.0000
     46 H           1.4769    0.9679    1.5836 H       1  UNL1        0.0000
     47 H          -0.3153   -2.5717   -4.1632 H       1  UNL1        0.0000
     48 H           2.2029   -4.3531   -1.4634 H       1  UNL1        0.0000
     49 H           1.1402   -2.5830    3.7784 H       1  UNL1        0.0000
     50 H          -1.1705   -1.3344   -0.3859 H       1  UNL1        0.0000
     51 H          -1.1107   -1.4620   -0.4992 H       1  UNL1        0.0000
     52 H          -1.7830    2.1531   -3.0965 H       1  UNL1        0.0000
     53 H           2.1898   -2.3998   -1.9204 H       1  UNL1        0.0000
     54 H          -0.9329    1.9988   -0.9030 H       1  UNL1        0.0000
     55 H           1.0399   -1.4028   -1.3292 H       1  UNL1        0.0000
     56 H           3.1236    2.0940    0.0753 H       1  UNL1        0.0000
     57 H           2.2063   -1.2935   -3.1912 H       1  UNL1        0.0000
     58 H          -3.7111   -0.5689   -2.2942 H       1  UNL1        0.0000
     59 H           1.5064   -0.4320    2.2746 H       1  UNL1        0.0000
     60 H          -2.6398    2.1717    1.7743 H       1  UNL1        0.0000
     61 H           3.3951    2.2317   -1.9481 H       1  UNL1        0.0000
     62 H           2.6913    3.0857   -0.9898 H       1  UNL1        0.0000
     63 H          -0.1592    0.8676    3.0957 H       1  UNL1        0.0000
     64 H           0.8856   -3.9278    1.2826 H       1  UNL1        0.0000
     65 H          -2.3815   -3.2759    0.9847 H       1  UNL1        0.0000
     66 H          -1.6002    1.4517    2.6215 H       1  UNL1        0.0000
     67 H           2.8918    1.6262    1.7766 H       1  UNL1        0.0000
     68 EU          0.5437    2.5513   -2.1900 Eu      1  UNL1        0.0000
@<TRIPOS>BOND
     1     1     2    2
     2     2     3   am
     3     3     4    1
     4     3     5    1
     5     5     6    1
     6     6     7    1
     7     2     8    1
     8     8     9   ar
     9     9    10   ar
    10     8    11   ar
    11    11    12   ar
    12    12    13   ar
    13    10    13   ar
    14    13    14   ar
    15    14    15   ar
    16    15    16   ar
    17    16    17   ar
    18    12    17   ar
    19    17    18   ar
    20    18    19   ar
    21    19    20    1
    22    20    21   ar
    23    21    22   ar
    24    22    23    1
    25    23    24    1
    26    23    25    1
    27    23    26    1
    28    26    27    1
    29    27    28    1
    30    28    29    1
    31    28    30    1
    32    22    31   ar
    33    28    31    1
    34    31    32   ar
    35    32    33   ar
    36    20    33   ar
    37    19    34   ar
    38    34    35   ar
    39    16    35   ar
    40     4    36    1
    41     4    37    1
    42     4    38    1
    43     5    39    1
    44     5    40    1
    45     6    41    1
    46     6    42    1
    47     7    43    1
    48     7    44    1
    49     7    45    1
    50     9    46    1
    51    10    47    1
    52    14    48    1
    53    15    49    1
    54    24    50    1
    55    24    51    1
    56    24    52    1
    57    25    53    1
    58    25    54    1
    59    25    55    1
    60    26    56    1
    61    26    57    1
    62    27    58    1
    63    27    59    1
    64    29    60    1
    65    29    61    1
    66    29    62    1
    67    30    63    1
    68    30    64    1
    69    30    65    1
    70    34    66    1
    71    35    67    1
    72    68     1    1
    73    68    33    1
    74    68    18    1
    75    68    11    1
@<TRIPOS>MOLECULE
*****
 68 75 0 0 0
SMALL
GASTEIGER

@<TRIPOS>ATOM
      1 O          -2.3122    0.7690   -2.2460 O.2     1  UNL1        0.0000
      2 C          -2.0888    0.3739   -1.5467 C.2     1  UNL1        0.0000
      3 N          -2.2550   -1.7696    1.9911 N.am    1  UNL1        0.0000
      4 C          -3.3187   -1.7857    2.6954 C.3     1  UNL1        0.0000
      5 C          -0.2262   -3.0606    2.7498 C.3     1  UNL1        0.0000
      6 C           1.0440   -2.3065    1.9768 C.3     1  UNL1        0.0000
      7 C          -0.3512   -1.9618   -2.1011 C.3     1  UNL1        0.0000
      8 C           0.8266    2.2510   -1.4041 C.ar    1  UNL1        0.0000
      9 C           1.7708    1.2773   -1.2292 C.ar    1  UNL1        0.0000
     10 C           0.3088   -1.2174   -3.8884 C.ar    1  UNL1        0.0000
     11 N           0.8143    2.6172   -2.1545 N.ar    1  UNL1        0.0000
     12 C           1.7025    0.9426   -3.2140 C.ar    1  UNL1        0.0000
     13 C           0.6770   -1.3354   -3.9964 C.ar    1  UNL1        0.0000
     14 C           1.1039   -3.8540   -1.4226 C.ar    1  UNL1        0.0000
     15 C           1.4627   -2.6694    0.0322 C.ar    1  UNL1        0.0000
     16 C           2.2632   -1.4578   -0.0448 C.ar    1  UNL1        0.0000
     17 C           3.0994   -0.3090   -0.5696 C.ar    1  UNL1        0.0000
     18 N           2.5913    0.5702    0.4095 N.ar    1  UNL1        0.0000
     19 C          -0.0406   -0.4790    1.4534 C.ar    1  UNL1        0.0000
     20 C          -0.9098   -0.1418    1.9360 C.ar    1  UNL1        0.0000
     21 N          -2.8804   -1.0316    0.4667 N.ar    1  UNL1        0.0000
     22 C          -3.1070   -0.8960   -0.3430 C.ar    1  UNL1        0.0000
     23 C          -1.9105   -1.5559   -0.8408 C.3     1  UNL1        0.0000
     24 C          -0.1310    0.0795   -1.4519 C.3     1  UNL1        0.0000
     25 C           0.0415   -0.1140   -1.0893 C.3     1  UNL1        0.0000
     26 C           0.0633    0.2084   -0.9215 C.3     1  UNL1        0.0000
     27 C          -1.7152    0.8008    0.3787 C.3     1  UNL1        0.0000
     28 C          -0.1777    1.4136    0.6171 C.3     1  UNL1        0.0000
     29 C           0.8068    2.4296    0.6622 C.3     1  UNL1        0.0000
     30 C          -0.6976   -2.4421    0.9274 C.3     1  UNL1        0.0000
     31 C          -2.6464    1.7917   -0.1500 C.ar    1  UNL1        0.0000
     32 N          -2.5672    3.1739    0.1615 N.ar    1  UNL1        0.0000
     33 N          -1.3299    2.9626    0.8760 N.ar    1  UNL1        0.0000
     34 C          -0.0820   -0.4564    1.3656 C.ar    1  UNL1        0.0000
     35 C           1.3767   -0.8023    0.4864 C.ar    1  UNL1        0.0000
     36 H          -3.1868   -0.9427    2.7855 H       1  UNL1        0.0000
     37 H          -1.9985   -3.4011    3.4454 H       1  UNL1        0.0000
     38 H          -1.9095   -0.4613    3.5160 H       1  UNL1        0.0000
     39 H           2.1575   -4.3980    0.4376 H       1  UNL1        0.0000
     40 H          -1.1894   -1.9013    2.7296 H       1  UNL1        0.0000
     41 H           2.8094   -1.8243    2.6770 H       1  UNL1        0.0000
     42 H          -0.8967   -3.5184   -0.4819 H       1  UNL1        0.0000
     43 H          -0.4955    0.6667   -3.1828 H       1  UNL1        0.0000
     44 H           1.9240   -0.4610   -2.0215 H       1  UNL1        0.0000
     45 H          -0.0358   -2.6083   -1.9494 H       1  UNL1        0.0000
     46 H           1.4769    0.9679    1.5836 H       1  UNL1        0.0000
     47 H          -0.3153   -2.5717   -4.1632 H       1  UNL1        0.0000
     48 H           2.2029   -4.3531   -1.4634 H       1  UNL1        0.0000
     49 H           1.1402   -2.5830    3.7784 H       1  UNL1        0.0000
     50 H          -1.1705   -1.3344   -0.3859 H       1  UNL1        0.0000
     51 H          -1.1107   -1.4620   -0.4992 H       1  UNL1        0.0000
     52 H          -1.7830    2.1531   -3.0965 H       1  UNL1        0.0000
     53 H           2.1898   -2.3998   -1.9204 H       1  UNL1        0.0000
     54 H          -0.9329    1.9988   -0.9030 H       1  UNL1        0.0000
     55 H           1.0399   -1.4028   -1.3292 H       1  UNL1        0.0000
     56 H           3.1236    2.0940    0.0753 H       1  UNL1        0.0000
     57 H           2.2063   -1.2935   -3.1912 H       1  UNL1        0.0000
     58 H          -3.7111   -0.5689   -2.2942 H       1  UNL1        0.0000
     59 H           1.5064   -0.4320    2.2746 H       1  UNL1        0.0000
     60 H          -2.6398    2.1717    1.7743 H       1  UNL1        0.0000
     61 H           3.3951    2.2317   -1.9481 H       1  UNL1        0.0000
     62 H           2.6913    3.0857   -0.9898 H       1  UNL1        0.0000
     63 H          -0.1592    0.8676    3.0957 H       1  UNL1        0.0000
     64 H           0.8856   -3.9278    1.2826 H       1  UNL1        0.0000
     65 H          -2.3815   -3.2759    0.9847 H       1  UNL1        0.0000
     66 H          -1.6002    1.4517    2.6215 H       1  UNL1        0.0000
     67 H           2.8918    1.6262    1.7766 H       1  UNL1        0.0000
     68 EU          0.5437    2.5513   -2.1900 Eu      1  UNL1        0.0000
@<TRIPOS>BOND
     1     1     2    2
     2     2     3   am
     3     3     4    1
     4     3     5    1
     5     5     6    1
     6     6     7    1
     7     2     8    1
     8     8     9   ar
     9     9    10   ar
    10     8    11   ar
    11    11    12   ar
    12    12    13   ar
    13    10    13   ar
    14    13    14   ar
    15    14    15   ar
    16    15    16   ar
    17    16    17   ar
    18    12    17   ar
    19    17    18   ar
    20    18    19   ar
    21    19    20    1
    22    20    21   ar
    23    21    22   ar
    24    22    23    1
    25    23    24    1
    26    23    25    1
    27    23    26    1
    28    26    27    1
    29    27    28    1
    30    28    29    1
    31    28    30    1
    32    22    31   ar
    33    28    31    1
    34    31    32   ar
    35    32    33   ar
    36    20    33   ar
    37    19    34   ar
    38    34    35   ar
    39    16    35   ar
    40     4    36    1
    41     4    37    1
    42     4    38    1
    43     5    39    1
    44     5    40    1
    45     6    41    1
    46     6    42    1
    47     7    43    1
    48     7    44    1
    49     7    45    1
    50     9    46    1
    51    10    47    1
    52    14    48    1
    53    15    49    1
    54    24    50    1
    55    24    51    1
    56    24    52    1
    57    25    53    1
    58    25    54    1
    59    25    55    1
    60    26    56    1
    61    26    57    1
    62    27    58    1
    63    27    59    1
    64    29    60    1
    65    29    61    1
    66    29    62    1
    67    30    63    1
    68    30    64    1
    69    30    65    1
    70    34    66    1
    71    35    67    1
    72    68     1    1
    73    68    33    1
    74    68    18    1
    75    68    11    1
@<TRIPOS>MOLECULE
*****
 68 75 0 0 0
SMALL
GASTEIGER

@<TRIPOS>ATOM
      1 O          -2.3122    0.7690   -2.2460 O.2     1  UNL1        0.0000
      2 C          -2.0888    0.3739   -1.5467 C.2     1  UNL1        0.0000
      3 N          -2.2550   -1.7696    1.9911 N.am    1  UNL1        0.0000
      4 C          -3.3187   -1.7857    2.6954 C.3     1  UNL1        0.0000
      5 C          -0.2262   -3.0606    2.7498 C.3     1  UNL1        0.0000
      6 C           1.0440   -2.3065    1.9768 C.3     1  UNL1        0.0000
      7 C          -0.3512   -1.9618   -2.1011 C.3     1  UNL1        0.0000
      8 C           0.8266    2.2510   -1.4041 C.ar    1  UNL1        0.0000
      9 C           1.7708    1.2773   -1.2292 C.ar    1  UNL1        0.0000
     10 C           0.3088   -1.2174   -3.8884 C.ar    1  UNL1        0.0000
     11 N           0.8143    2.6172   -2.1545 N.ar    1  UNL1        0.0000
     12 C           1.7025    0.9426   -3.2140 C.ar    1  UNL1        0.0000
     13 C           0.6770   -1.3354   -3.9964 C.ar    1  UNL1        0.0000
     14 C           1.1039   -3.8540   -1.4226 C.ar    1  UNL1        0.0000
     15 C           1.4627   -2.6694    0.0322 C.ar    1  UNL1        0.0000
     16 C           2.2632   -1.4578   -0.0448 C.ar    1  UNL1        0.0000
     17 C           3.0994   -0.3090   -0.5696 C.ar    1  UNL1        0.0000
     18 N           2.5913    0.5702    0.4095 N.ar    1  UNL1        0.0000
     19 C          -0.0406   -0.4790    1.4534 C.ar    1  UNL1        0.0000
     20 C          -0.9098   -0.1418    1.9360 C.ar    1  UNL1        0.0000
     21 N          -2.8804   -1.0316    0.4667 N.ar    1  UNL1        0.0000
     22 C          -3.1070   -0.8960   -0.3430 C.ar    1  UNL1        0.0000
     23 C          -1.9105   -1.5559   -0.8408 C.3     1  UNL1        0.0000
     24 C          -0.1310    0.0795   -1.4519 C.3     1  UNL1        0.0000
     25 C           0.0415   -0.1140   -1.0893 C.3     1  UNL1        0.0000
     26 C           0.0633    0.2084   -0.9215 C.3     1  UNL1        0.0000
     27 C          -1.7152    0.8008    0.3787 C.3     1  UNL1        0.0000
     28 C          -0.1777    1.4136    0.6171 C.3     1  UNL1        0.0000
     29 C           0.8068    2.4296    0.6622 C.3     1  UNL1        0.0000
     30 C          -0.6976   -2.4421    0.9274 C.3     1  UNL1        0.0000
     31 C          -2.6464    1.7917   -0.1500 C.ar    1  UNL1        0.0000
     32 N          -2.5672    3.1739    0.1615 N.ar    1  UNL1        0.0000
     33 N          -1.3299    2.9626    0.8760 N.ar    1  UNL1        0.0000
     34 C          -0.0820   -0.4564    1.3656 C.ar    1  UNL1        0.0000
     35 C           1.3767   -0.8023    0.4864 C.ar    1  UNL1        0.0000
     36 H          -3.1868   -0.9427    2.7855 H       1  UNL1        0.0000
     37 H          -1.9985   -3.4011    3.4454 H       1  UNL1        0.0000
     38 H          -1.9095   -0.4613    3.5160 H       1  UNL1        0.0000
     39 H           2.1575   -4.3980    0.4376 H       1  UNL1        0.0000
     40 H          -1.1894   -1.9013    2.7296 H       1  UNL1        0.0000
     41 H           2.8094   -1.8243    2.6770 H       1  UNL1        0.0000
     42 H          -0.8967   -3.5184   -0.4819 H       1  UNL1        0.0000
     43 H          -0.4955    0.6667   -3.1828 H       1  UNL1        0.0000
     44 H           1.9240   -0.4610   -2.0215 H       1  UNL1        0.0000
     45 H          -0.0358   -2.6083   -1.9494 H       1  UNL1        0.0000
     46 H           1.4769    0.9679    1.5836 H       1  UNL1        0.0000
     47 H          -0.3153   -2.5717   -4.1632 H       1  UNL1        0.0000
     48 H           2.2029   -4.3531   -1.4634 H       1  UNL1        0.0000
     49 H           1.1402   -2.5830    3.7784 H       1  UNL1        0.0000
     50 H          -1.1705   -1.3344   -0.3859 H       1  UNL1        0.0000
     51 H          -1.1107   -1.4620   -0.4992 H       1  UNL1        0.0000
     52 H          -1.7830    2.1531   -3.0965 H       1  UNL1        0.0000
     53 H           2.1898   -2.3998   -1.9204 H       1  UNL1        0.0000
     54 H          -0.9329    1.9988   -0.9030 H       1  UNL1        0.0000
     55 H           1.0399   -1.4028   -1.3292 H       1  UNL1        0.0000
     56 H           3.1236    2.0940    0.0753 H       1  UNL1        0.0000
     57 H           2.2063   -1.2935   -3.1912 H       1  UNL1        0.0000
     58 H          -3.7111   -0.5689   -2.2942 H       1  UNL1        0.0000
     59 H           1.5064   -0.4320    2.2746 H       1  UNL1        0.0000
     60 H          -2.6398    2.1717    1.7743 H       1  UNL1        0.0000
     61 H           3.3951    2.2317   -1.9481 H       1  UNL1        0.0000
     62 H           2.6913    3.0857   -0.9898 H       1  UNL1        0.0000
     63 H          -0.1592    0.8676    3.0957 H       1  UNL1        0.0000
     64 H           0.8856   -3.9278    1.2826 H       1  UNL1        0.0000
     65 H          -2.3815   -3.2759    0.9847 H       1  UNL1        0.0000
     66 H          -1.6002    1.4517    2.6215 H       1  UNL1        0.0000
     67 H           2.8918    1.6262    1.7766 H       1  UNL1        0.0000
     68 EU          0.5437    2.5513   -2.1900 Eu      1  UNL1        0.0000
@<TRIPOS>BOND
     1     1     2    2
     2     2     3   am
     3     3     4    1
     4     3     5    1
     5     5     6    1
     6     6     7    1
     7     2     8    1
     8     8     9   ar
     9     9    10   ar
    10     8    11   ar
    11    11    12   ar
    12    12    13   ar
    13    10    13   ar
    14    13    14   ar
    15    14    15   ar
    16    15    16   ar
    17    16    17   ar
    18    12    17   ar
    19    17    18   ar
    20    18    19   ar
    21    19    20    1
    22    20    21   ar
    23    21    22   ar
    24    22    23    1
    25    23    24    1
    26    23    25    1
    27    23    26    1
    28    26    27    1
    29    27    28    1
    30    28    29    1
    31    28    30    1
    32    22    31   ar
    33    28    31    1
    34    31    32   ar
    35    32    33   ar
    36    20    33   ar
    37    19    34   ar
    38    34    35   ar
    39    16    35   ar
    40     4    36    1
    41     4    37    1
    42     4    38    1
    43     5    39    1
    44     5    40    1
    45     6    41    1
    46     6    42    1
    47     7    43    1
    48     7    44    1
    49     7    45    1
    50     9    46    1
    51    10    47    1
    52    14    48    1
    53    15    49    1
    54    24    50    1
    55    24    51    1
    56    24    52    1
    57    25    53    1
    58    25    54    1
    59    25    55    1
    60    26    56    1
    61    26    57    1
    62    27    58    1
    63    27    59    1
    64    29    60    1
    65    29    61    1
    66    29    62    1
    67    30    63    1
    68    30    64    1
    69    30    65    1
    70    34    66    1
    71    35    67    1
    72    68     1    1
    73    68    33    1
    74    68    18    1
    75    68    11    1
@<TRIPOS>MOLECULE
*****
 68 75 0 0 0
SMALL
GASTEIGER

@<TRIPOS>ATOM
      1 O          -2.3122    0.7690   -2.2460 O.2     1  UNL1        0.0000
      2 C          -2.0888    0.3739   -1.5467 C.2     1  UNL1        0.0000
      3 N          -2.2550   -1.7696    1.9911 N.am    1  UNL1        0.0000
      4 C          -3.3187   -1.7857    2.6954 C.3     1  UNL1        0.0000
      5 C          -0.2262   -3.0606    2.7498 C.3     1  UNL1        0.0000
      6 C           1.0440   -2.3065    1.9768 C.3     1  UNL1        0.0000
      7 C          -0.3512   -1.9618   -2.1011 C.3     1  UNL1        0.0000
      8 C           0.8266    2.2510   -1.4041 C.ar    1  UNL1        0.0000
      9 C           1.7708    1.2773   -1.2292 C.ar    1  UNL1        0.0000
     10 C           0.3088   -1.2174   -3.8884 C.ar    1  UNL1        0.0000
     11 N           0.8143    2.6172   -2.1545 N.ar    1  UNL1        0.0000
     12 C           1.7025    0.9426   -3.2140 C.ar    1  UNL1        0.0000
     13 C           0.6770   -1.3354   -3.9964 C.ar    1  UNL1        0.0000
     14 C           1.1039   -3.8540   -1.4226 C.ar    1  UNL1        0.0000
     15 C           1.4627   -2.6694    0.0322 C.ar    1  UNL1        0.0000
     16 C           2.2632   -1.4578   -0.0448 C.ar    1  UNL1        0.0000
     17 C           3.0994   -0.3090   -0.5696 C.ar    1  UNL1        0.0000
     18 N           2.5913    0.5702    0.4095 N.ar    1  UNL1        0.0000
     19 C          -0.0406   -0.4790    1.4534 C.ar    1  UNL1        0.0000
     20 C          -0.9098   -0.1418    1.9360 C.ar    1  UNL1        0.0000
     21 N          -2.8804   -1.0316    0.4667 N.ar    1  UNL1        0.0000
     22 C          -3.1070   -0.8960   -0.3430 C.ar    1  UNL1        0.0000
     23 C          -1.9105   -1.5559   -0.8408 C.3     1  UNL1        0.0000
     24 C          -0.1310    0.0795   -1.4519 C.3     1  UNL1        0.0000
     25 C           0.0415   -0.1140   -1.0893 C.3     1  UNL1        0.0000
     26 C           0.0633    0.2084   -0.9215 C.3     1  UNL1        0.0000
     27 C          -1.7152    0.8008    0.3787 C.3     1  UNL1        0.0000
     28 C          -0.1777    1.4136    0.6171 C.3     1  UNL1        0.0000
     29 C           0.8068    2.4296    0.6622 C.3     1  UNL1        0.0000
     30 C          -0.6976   -2.4421    0.9274 C.3     1  UNL1        0.0000
     31 C          -2.6464    1.7917   -0.1500 C.ar    1  UNL1        0.0000
     32 N          -2.5672    3.1739    0.1615 N.ar    1  UNL1        0.0000
     33 N          -1.3299    2.9626    0.8760 N.ar    1  UNL1        0.0000
     34 C          -0.0820   -0.4564    1.3656 C.ar    1  UNL1        0.0000
     35 C           1.3767   -0.8023    0.4864 C.ar    1  UNL1        0.0000
     36 H          -3.1868   -0.9427    2.7855 H       1  UNL1        0.0000
     37 H          -1.9985   -3.4011    3.4454 H       1  UNL1        0.0000
     38 H          -1.9095   -0.4613    3.5160 H       1  UNL1        0.0000
     39 H           2.1575   -4.3980    0.4376 H       1  UNL1        0.0000
     40 H          -1.1894   -1.9013    2.7296 H       1  UNL1        0.0000
     41 H           2.8094   -1.8243    2.6770 H       1  UNL1        0.0000
     42 H          -0.8967   -3.5184   -0.4819 H       1  UNL1        0.0000
     43 H          -0.4955    0.6667   -3.1828 H       1  UNL1        0.0000
     44 H           1.9240   -0.4610   -2.0215 H       1  UNL1        0.0000
     45 H          -0.0358   -2.6083   -1.9494 H       1  UNL1        0.0000
     46 H           1.4769    0.9679    1.5836 H       1  UNL1        0.0000
     47 H          -0.3153   -2.5717   -4.1632 H       1  UNL1        0.0000
     48 H           2.2029   -4.3531   -1.4634 H       1  UNL1        0.0000
     49 H           1.1402   -2.5830    3.7784 H       1  UNL1        0.0000
     50 H          -1.1705   -1.3344   -0.3859 H       1  UNL1        0.0000
     51 H          -1.1107   -1.4620   -0.4992 H       1  UNL1        0.0000
     52 H          -1.7830    2.1531   -3.0965 H       1  UNL1        0.0000
     53 H           2.1898   -2.3998   -1.9204 H       1  UNL1        0.0000
     54 H          -0.9329    1.9988   -0.9030 H       1  UNL1        0.0000
     55 H           1.0399   -1.4028   -1.3292 H       1  UNL1        0.0000
     56 H           3.1236    2.0940    0.0753 H       1  UNL1        0.0000
     57 H           2.2063   -1.2935   -3.1912 H       1  UNL1        0.0000
     58 H          -3.7111   -0.5689   -2.2942 H       1  UNL1        0.0000
     59 H           1.5064   -0.4320    2.2746 H       1  UNL1        0.0000
     60 H          -2.6398    2.1717    1.7743 H       1  UNL1        0.0000
     61 H           3.3951    2.2317   -1.9481 H       1  UNL1        0.0000
     62 H           2.6913    3.0857   -0.9898 H       1  UNL1        0.0000
     63 H          -0.1592    0.8676    3.0957 H       1  UNL1        0.0000
     64 H           0.8856   -3.9278    1.2826 H       1  UNL1        0.0000
     65 H          -2.3815   -3.2759    0.9847 H       1  UNL1        0.0000
     66 H          -1.6002    1.4517    2.6215 H       1  UNL1        0.0000
     67 H           2.8918    1.6262    1.7766 H       1  UNL1        0.0000
     68 EU          0.5437    2.5513   -2.1900 Eu      1  UNL1        0.0000
@<TRIPOS>BOND
     1     1     2    2
     2     2     3   am
     3     3     4    1
     4     3     5    1
     5     5     6    1
     6     6     7    1
     7     2     8    1
     8     8     9   ar
     9     9    10   ar
    10     8    11   ar
    11    11    12   ar
    12    12    13   ar
    13    10    13   ar
    14    13    14   ar
    15    14    15   ar
    16    15    16   ar
    17    16    17   ar
    18    12    17   ar
    19    17    18   ar
    20    18    19   ar
    21    19    20    1
    22    20    21   ar
    23    21    22   ar
    24    22    23    1
    25    23    24    1
    26    23    25    1
    27    23    26    1
    28    26    27    1
    29    27    28    1
    30    28    29    1
    31    28    30    1
    32    22    31   ar
    33    28    31    1
    34    31    32   ar
    35    32    33   ar
    36    20    33   ar
    37    19    34   ar
    38    34    35   ar
    39    16    35   ar
    40     4    36    1
    41     4    37    1
    42     4    38    1
    43     5    39    1
    44     5    40    1
    45     6    41    1
    46     6    42    1
    47     7    43    1
    48     7    44    1
    49     7    45    1
    50     9    46    1
    51    10    47    1
    52    14    48    1
    53    15    49    1
    54    24    50    1
    55    24    51    1
    56    24    52    1
    57    25    53    1
    58    25    54    1
    59    25    55    1
    60    26    56    1
    61    26    57    1
    62    27    58    1
    63    27    59    1
    64    29    60    1
    65    29    61    1
    66    29    62    1
    67    30    63    1
    68    30    64    1
    69    30    65    1
    70    34    66    1
    71    35    67    1
    72    68     1    1
    73    68    33    1
    74    68    18    1
    75    68    11    1
@<TRIPOS>MOLECULE
*****
 68 75 0 0 0
SMALL
GASTEIGER

@<TRIPOS>ATOM
      1 O          -2.3122    0.7690   -2.2460 O.2     1  UNL1        0.0000
      2 C          -2.0888    0.3739   -1.5467 C.2     1  UNL1        0.0000
      3 N          -2.2550   -1.7696    1.9911 N.am    1  UNL1        0.0000
      4 C          -3.3187   -1.7857    2.6954 C.3     1  UNL1        0.0000
      5 C          -0.2262   -3.0606    2.7498 C.3     1  UNL1        0.0000
      6 C           1.0440   -2.3065    1.9768 C.3     1  UNL1        0.0000
      7 C          -0.3512   -1.9618   -2.1011 C.3     1  UNL1        0.0000
      8 C           0.8266    2.2510   -1.4041 C.ar    1  UNL1        0.0000
      9 C           1.7708    1.2773   -1.2292 C.ar    1  UNL1        0.0000
     10 C           0.3088   -1.2174   -3.8884 C.ar    1  UNL1        0.0000
     11 N           0.8143    2.6172   -2.1545 N.ar    1  UNL1        0.0000
     12 C           1.7025    0.9426   -3.2140 C.ar    1  UNL1        0.0000
     13 C           0.6770   -1.3354   -3.9964 C.ar    1  UNL1        0.0000
     14 C           1.1039   -3.8540   -1.4226 C.ar    1  UNL1        0.0000
     15 C           1.4627   -2.6694    0.0322 C.ar    1  UNL1        0.0000
     16 C           2.2632   -1.4578   -0.0448 C.ar    1  UNL1        0.0000
     17 C           3.0994   -0.3090   -0.5696 C.ar    1  UNL1        0.0000
     18 N           2.5913    0.5702    0.4095 N.ar    1  UNL1        0.0000
     19 C          -0.0406   -0.4790    1.4534 C.ar    1  UNL1        0.0000
     20 C          -0.9098   -0.1418    1.9360 C.ar    1  UNL1        0.0000
     21 N          -2.8804   -1.0316    0.4667 N.ar    1  UNL1        0.0000
     22 C          -3.1070   -0.8960   -0.3430 C.ar    1  UNL1        0.0000
     23 C          -1.9105   -1.5559   -0.8408 C.3     1  UNL1        0.0000
     24 C          -0.1310    0.0795   -1.4519 C.3     1  UNL1        0.0000
     25 C           0.0415   -0.1140   -1.0893 C.3     1  UNL1        0.0000
     26 C           0.0633    0.2084   -0.9215 C.3     1  UNL1        0.0000
     27 C          -1.7152    0.8008    0.3787 C.3     1  UNL1        0.0000
     28 C          -0.1777    1.4136    0.6171 C.3     1  UNL1        0.0000
     29 C           0.8068    2.4296    0.6622 C.3     1  UNL1        0.0000
     30 C          -0.6976   -2.4421    0.9274 C.3     1  UNL1        0.0000
     31 C          -2.6464    1.7917   -0.1500 C.ar    1  UNL1        0.0000
     32 N          -2.5672    3.1739    0.1615 N.ar    1  UNL1        0.0000
     33 N          -1.3299    2.9626    0.8760 N.ar    1  UNL1        0.0000
     34 C          -0.0820   -0.4564    1.3656 C.ar    1  UNL1        0.0000
     35 C           1.3767   -0.8023    0.4864 C.ar    1  UNL1        0.0000
     36 H          -3.1868   -0.9427    2.7855 H       1  UNL1        0.0000
     37 H          -1.9985   -3.4011    3.4454 H       1  UNL1        0.0000
     38 H          -1.9095   -0.4613    3.5160 H       1  UNL1        0.0000
     39 H           2.1575   -4.3980    0.4376 H       1  UNL1        0.0000
     40 H          -1.1894   -1.9013    2.7296 H       1  UNL1        0.0000
     41 H           2.8094   -1.8243    2.6770 H       1  UNL1        0.0000
     42 H          -0.8967   -3.5184   -0.4819 H       1  UNL1        0.0000
     43 H          -0.4955    0.6667   -3.1828 H       1  UNL1        0.0000
     44 H           1.9240   -0.4610   -2.0215 H       1  UNL1        0.0000
     45 H          -0.0358   -2.6083   -1.9494 H       1  UNL1        0.0000
     46 H           1.4769    0.9679    1.5836 H       1  UNL1        0.0000
     47 H          -0.3153   -2.5717   -4.1632 H       1  UNL1        0.0000
     48 H           2.2029   -4.3531   -1.4634 H       1  UNL1        0.0000
     49 H           1.1402   -2.5830    3.7784 H       1  UNL1        0.0000
     50 H          -1.1705   -1.3344   -0.3859 H       1  UNL1        0.0000
     51 H          -1.1107   -1.4620   -0.4992 H       1  UNL1        0.0000
     52 H          -1.7830    2.1531   -3.0965 H       1  UNL1        0.0000
     53 H           2.1898   -2.3998   -1.9204 H       1  UNL1        0.0000
     54 H          -0.9329    1.9988   -0.9030 H       1  UNL1        0.0000
     55 H           1.0399   -1.4028   -1.3292 H       1  UNL1        0.0000
     56 H           3.1236    2.0940    0.0753 H       1  UNL1        0.0000
     57 H           2.2063   -1.2935   -3.1912 H       1  UNL1        0.0000
     58 H          -3.7111   -0.5689   -2.2942 H       1  UNL1        0.0000
     59 H           1.5064   -0.4320    2.2746 H       1  UNL1        0.0000
     60 H          -2.6398    2.1717    1.7743 H       1  UNL1        0.0000
     61 H           3.3951    2.2317   -1.9481 H       1  UNL1        0.0000
     62 H           2.6913    3.0857   -0.9898 H       1  UNL1        0.0000
     63 H          -0.1592    0.8676    3.0957 H       1  UNL1        0.0000
     64 H           0.8856   -3.9278    1.2826 H       1  UNL1        0.0000
     65 H          -2.3815   -3.2759    0.9847 H       1  UNL1        0.0000
     66 H          -1.6002    1.4517    2.6215 H       1  UNL1        0.0000
     67 H           2.8918    1.6262    1.7766 H       1  UNL1        0.0000
     68 EU          0.5437    2.5513   -2.1900 Eu      1  UNL1        0.0000
@<TRIPOS>BOND
     1     1     2    2
     2     2     3   am
     3     3     4    1
     4     3     5    1
     5     5     6    1
     6     6     7    1
     7     2     8    1
     8     8     9   ar
     9     9    10   ar
    10     8    11   ar
    11    11    12   ar
    12    12    13   ar
    13    10    13   ar
    14    13    14   ar
    15    14    15   ar
    16    15    16   ar
    17    16    17   ar
    18    12    17   ar
    19    17    18   ar
    20    18    19   ar
    21    19    20    1
    22    20    21   ar
    23    21    22   ar
    24    22    23    1
    25    23    24    1
    26    23    25    1
    27    23    26    1
    28    26    27    1
    29    27    28    1
    30    28    29    1
    31    28    30    1
    32    22    31   ar
    33    28    31    1
    34    31    32   ar
    35    32    33   ar
    36    20    33   ar
    37    19    34   ar
    38    34    35   ar
    39    16    35   ar
    40     4    36    1
    41     4    37    1
    42     4    38    1
    43     5    39    1
    44     5    40    1
    45     6    41    1
    46     6    42    1
    47     7    43    1
    48     7    44    1
    49     7    45    1
    50     9    46    1
    51    10    47    1
    52    14    48    1
    53    15    49    1
    54    24    50    1
    55    24    51    1
    56    24    52    1
    57    25    53    1
    58    25    54    1
    59    25    55    1
    60    26    56    1
    61    26    57    1
    62    27    58    1
    63    27    59    1
    64    29    60    1
    65    29    61    1
    66    29    62    1
    67    30    63    1
    68    30    64    1
    69    30    65    1
    70    34    66    1
    71    35    67    1
    72    68     1    1
    73    68    33    1
    74    68    18    1
    75    68    11    1
@<TRIPOS>MOLECULE
*****
 68 75 0 0 0
SMALL
GASTEIGER

@<TRIPOS>ATOM
      1 O          -2.3122    0.7690   -2.2460 O.2     1  UNL1        0.0000
      2 C          -2.0888    0.3739   -1.5467 C.2     1  UNL1        0.0000
      3 N          -2.2550   -1.7696    1.9911 N.am    1  UNL1        0.0000
      4 C          -3.3187   -1.7857    2.6954 C.3     1  UNL1        0.0000
      5 C          -0.2262   -3.0606    2.7498 C.3     1  UNL1        0.0000
      6 C           1.0440   -2.3065    1.9768 C.3     1  UNL1        0.0000
      7 C          -0.3512   -1.9618   -2.1011 C.3     1  UNL1        0.0000
      8 C           0.8266    2.2510   -1.4041 C.ar    1  UNL1        0.0000
      9 C           1.7708    1.2773   -1.2292 C.ar    1  UNL1        0.0000
     10 C           0.3088   -1.2174   -3.8884 C.ar    1  UNL1        0.0000
     11 N           0.8143    2.6172   -2.1545 N.ar    1  UNL1        0.0000
     12 C           1.7025    0.9426   -3.2140 C.ar    1  UNL1        0.0000
     13 C           0.6770   -1.3354   -3.9964 C.ar    1  UNL1        0.0000
     14 C           1.1039   -3.8540   -1.4226 C.ar    1  UNL1        0.0000
     15 C           1.4627   -2.6694    0.0322 C.ar    1  UNL1        0.0000
     16 C           2.2632   -1.4578   -0.0448 C.ar    1  UNL1        0.0000
     17 C           3.0994   -0.3090   -0.5696 C.ar    1  UNL1        0.0000
     18 N           2.5913    0.5702    0.4095 N.ar    1  UNL1        0.0000
     19 C          -0.0406   -0.4790    1.4534 C.ar    1  UNL1        0.0000
     20 C          -0.9098   -0.1418    1.9360 C.ar    1  UNL1        0.0000
     21 N          -2.8804   -1.0316    0.4667 N.ar    1  UNL1        0.0000
     22 C          -3.1070   -0.8960   -0.3430 C.ar    1  UNL1        0.0000
     23 C          -1.9105   -1.5559   -0.8408 C.3     1  UNL1        0.0000
     24 C          -0.1310    0.0795   -1.4519 C.3     1  UNL1        0.0000
     25 C           0.0415   -0.1140   -1.0893 C.3     1  UNL1        0.0000
     26 C           0.0633    0.2084   -0.9215 C.3     1  UNL1        0.0000
     27 C          -1.7152    0.8008    0.3787 C.3     1  UNL1        0.0000
     28 C          -0.1777    1.4136    0.6171 C.3     1  UNL1        0.0000
     29 C           0.8068    2.4296    0.6622 C.3     1  UNL1        0.0000
     30 C          -0.6976   -2.4421    0.9274 C.3     1  UNL1        0.0000
     31 C          -2.6464    1.7917   -0.1500 C.ar    1  UNL1        0.0000
     32 N          -2.5672    3.1739    0.1615 N.ar    1  UNL1        0.0000
     33 N          -1.3299    2.9626    0.8760 N.ar    1  UNL1        0.0000
     34 C          -0.0820   -0.4564    1.3656 C.ar    1  UNL1        0.0000
     35 C           1.3767   -0.8023    0.4864 C.ar    1  UNL1        0.0000
     36 H          -3.1868   -0.9427    2.7855 H       1  UNL1        0.0000
     37 H          -1.9985   -3.4011    3.4454 H       1  UNL1        0.0000
     38 H          -1.9095   -0.4613    3.5160 H       1  UNL1        0.0000
     39 H           2.1575   -4.3980    0.4376 H       1  UNL1        0.0000
     40 H          -1.1894   -1.9013    2.7296 H       1  UNL1        0.0000
     41 H           2.8094   -1.8243    2.6770 H       1  UNL1        0.0000
     42 H          -0.8967   -3.5184   -0.4819 H       1  UNL1        0.0000
     43 H          -0.4955    0.6667   -3.1828 H       1  UNL1        0.0000
     44 H           1.9240   -0.4610   -2.0215 H       1  UNL1        0.0000
     45 H          -0.0358   -2.6083   -1.9494 H       1  UNL1        0.0000
     46 H           1.4769    0.9679    1.5836 H       1  UNL1        0.0000
     47 H          -0.3153   -2.5717   -4.1632 H       1  UNL1        0.0000
     48 H           2.2029   -4.3531   -1.4634 H       1  UNL1        0.0000
     49 H           1.1402   -2.5830    3.7784 H       1  UNL1        0.0000
     50 H          -1.1705   -1.3344   -0.3859 H       1  UNL1        0.0000
     51 H          -1.1107   -1.4620   -0.4992 H       1  UNL1        0.0000
     52 H          -1.7830    2.1531   -3.0965 H       1  UNL1        0.0000
     53 H           2.1898   -2.3998   -1.9204 H       1  UNL1        0.0000
     54 H          -0.9329    1.9988   -0.9030 H       1  UNL1        0.0000
     55 H           1.0399   -1.4028   -1.3292 H       1  UNL1        0.0000
     56 H           3.1236    2.0940    0.0753 H       1  UNL1        0.0000
     57 H           2.2063   -1.2935   -3.1912 H       1  UNL1        0.0000
     58 H          -3.7111   -0.5689   -2.2942 H       1  UNL1        0.0000
     59 H           1.5064   -0.4320    2.2746 H       1  UNL1        0.0000
     60 H          -2.6398    2.1717    1.7743 H       1  UNL1        0.0000
     61 H           3.3951    2.2317   -1.9481 H       1  UNL1        0.0000
     62 H           2.6913    3.0857   -0.9898 H       1  UNL1        0.0000
     63 H          -0.1592    0.8676    3.0957 H       1  UNL1        0.0000
     64 H           0.8856   -3.9278    1.2826 H       1  UNL1        0.0000
     65 H          -2.3815   -3.2759    0.9847 H       1  UNL1        0.0000
     66 H          -1.6002    1.4517    2.6215 H       1  UNL1        0.0000
     67 H           2.8918    1.6262    1.7766 H       1  UNL1        0.0000
     68 EU          0.5437    2.5513   -2.1900 Eu      1  UNL1        0.0000
@<TRIPOS>BOND
     1     1     2    2
     2     2     3   am
     3     3     4    1
     4     3     5    1
     5     5     6    1
     6     6     7    1
     7     2     8    1
     8     8     9   ar
     9     9    10   ar
    10     8    11   ar
    11    11    12   ar
    12    12    13   ar
    13    10    13   ar
    14    13    14   ar
    15    14    15   ar
    16    15    16   ar
    17    16    17   ar
    18    12    17   ar
    19    17    18   ar
    20    18    19   ar
    21    19    20    1
    22    20    21   ar
    23    21    22   ar
    24    22    23    1
    25    23    24    1
    26    23    25    1
    27    23    26    1
    28    26    27    1
    29    27    28    1
    30    28    29    1
    31    28    30    1
    32    22    31   ar
    33    28    31    1
    34    31    32   ar
    35    32    33   ar
    36    20    33   ar
    37    19    34   ar
    38    34    35   ar
    39    16    35   ar
    40     4    36    1
    41     4    37    1
    42     4    38    1
    43     5    39    1
    44     5    40    1
    45     6    41    1
    46     6    42    1
    47     7    43    1
    48     7    44    1
    49     7    45    1
    50     9    46    1
    51    10    47    1
    52    14    48    1
    53    15    49    1
    54    24    50    1
    55    24    51    1
    56    24    52    1
    57    25    53    1
    58    25    54    1
    59    25    55    1
    60    26    56    1
    61    26    57    1
    62    27    58    1
    63    27    59    1
    64    29    60    1
    65    29    61    1
    66    29    62    1
    67    30    63    1
    68    30    64    1
    69    30    65    1
    70    34    66    1
    71    35    67    1
    72    68     1    1
    73    68    33    1
    74    68    18    1
    75    68    11    1
@<TRIPOS>MOLECULE
*****
 68 75 0 0 0
SMALL
GASTEIGER

@<TRIPOS>ATOM
      1 O          -2.3032    1.5377   -1.6849 O.2     1  UNL1        0.0000
      2 C          -1.7751    0.2402   -0.9983 C.2     1  UNL1        0.0000
      3 N          -2.4240   -2.3929    1.7590 N.am    1  UNL1        0.0000
      4 C          -3.2814   -1.9437    2.9362 C.3     1  UNL1        0.0000
      5 C          -0.8962   -3.0101    2.8613 C.3     1  UNL1        0.0000
      6 C           1.6637   -2.1405    2.2530 C.3     1  UNL1        0.0000
      7 C          -0.9861   -3.0151   -1.7503 C.3     1  UNL1        0.0000
      8 C           0.5647    2.3374   -2.2134 C.ar    1  UNL1        0.0000
      9 C           2.2731    2.0404   -1.5242 C.ar    1  UNL1        0.0000
     10 C           0.9845   -0.9453   -3.9110 C.ar    1  UNL1        0.0000
     11 N           0.6534    2.9841   -2.7688 N.ar    1  UNL1        0.0000
     12 C           1.9582    1.0857   -2.9771 C.ar    1  UNL1        0.0000
     13 C           0.7684   -0.8643   -4.4048 C.ar    1  UNL1        0.0000
     14 C           1.2846   -4.0655   -1.9494 C.ar    1  UNL1        0.0000
     15 C           1.7725   -2.1070   -0.1710 C.ar    1  UNL1        0.0000
     16 C           1.9994   -1.1501   -0.0557 C.ar    1  UNL1        0.0000
     17 C           3.5143    0.1366   -0.9065 C.ar    1  UNL1        0.0000
     18 N           2.5461    1.4145    0.2082 N.ar    1  UNL1        0.0000
     19 C          -0.1795   -1.1330    1.1095 C.ar    1  UNL1        0.0000
     20 C          -1.0073   -0.8732    2.7440 C.ar    1  UNL1        0.0000
     21 N          -2.7595   -1.6537    0.4676 N.ar    1  UNL1        0.0000
     22 C          -3.6990   -0.2427   -0.0144 C.ar    1  UNL1        0.0000
     23 C          -3.1167   -1.6350   -1.0053 C.3     1  UNL1        0.0000
     24 C          -1.0103   -0.1865   -0.6523 C.3     1  UNL1        0.0000
     25 C           0.3044   -0.1522   -0.9405 C.3     1  UNL1        0.0000
     26 C           0.2527    0.1241   -0.3513 C.3     1  UNL1        0.0000
     27 C          -1.9741    0.9735    1.2923 C.3     1  UNL1        0.0000
     28 C          -0.2953    0.9187    0.4460 C.3     1  UNL1        0.0000
     29 C           1.5031    2.1888    1.6441 C.3     1  UNL1        0.0000
     30 C          -0.5230   -2.7351    1.4955 C.3     1  UNL1        0.0000
     31 C          -2.5999    1.5779   -0.8945 C.ar    1  UNL1        0.0000
     32 N          -2.9167    2.8944    0.1854 N.ar    1  UNL1        0.0000
     33 N          -1.1027    2.7084    1.3897 N.ar    1  UNL1        0.0000
     34 C           0.1163   -0.7290    0.4321 C.ar    1  UNL1        0.0000
     35 C           1.1963   -0.1834   -0.2463 C.ar    1  UNL1        0.0000
     36 H          -2.6888   -0.6422    2.4620 H       1  UNL1        0.0000
     37 H          -1.4973   -3.7683    3.8067 H       1  UNL1        0.0000
     38 H          -1.6435   -0.8050    3.6318 H       1  UNL1        0.0000
     39 H           2.5633   -4.3564   -0.1047 H       1  UNL1        0.0000
     40 H          -1.0222   -2.8831    2.5639 H       1  UNL1        0.0000
     41 H           3.2936   -1.9806    2.7321 H       1  UNL1        0.0000
     42 H          -1.0495   -3.5598   -1.2453 H       1  UNL1        0.0000
     43 H          -0.6787    1.3904   -3.8326 H       1  UNL1        0.0000
     44 H           1.5332   -0.9722   -1.6688 H       1  UNL1        0.0000
     45 H           0.4067   -2.1110   -3.1641 H       1  UNL1        0.0000
     46 H           1.1154    1.2740    2.1331 H       1  UNL1        0.0000
     47 H          -0.5914   -2.7410   -3.9352 H       1  UNL1        0.0000
     48 H           2.5583   -4.0473   -1.1081 H       1  UNL1        0.0000
     49 H           0.6806   -2.2504    3.2695 H       1  UNL1        0.0000
     50 H          -0.9345   -2.2934   -0.0434 H       1  UNL1        0.0000
     51 H          -0.7347   -1.9002   -0.8830 H       1  UNL1        0.0000
     52 H          -1.3209    2.4993   -3.0844 H       1  UNL1        0.0000
     53 H           2.0904   -2.7986   -1.7808 H       1  UNL1        0.0000
     54 H          -0.4329    2.3521   -1.1317 H       1  UNL1        0.0000
     55 H           0.7863   -2.3632   -1.2530 H       1  UNL1        0.0000
     56 H           2.5347    1.4858   -0.2934 H       1  UNL1        0.0000
     57 H           2.0416   -0.9135   -2.7862 H       1  UNL1        0.0000
     58 H          -4.0015   -0.7110   -2.7135 H       1  UNL1        0.0000
     59 H           1.2829   -1.3102    2.0253 H       1  UNL1        0.0000
     60 H          -2.6966    2.5078    1.9979 H       1  UNL1        0.0000
     61 H           3.5799    2.1668   -2.0257 H       1  UNL1        0.0000
     62 H           3.3179    3.2950   -1.4296 H       1  UNL1        0.0000
     63 H          -0.3971    0.8455    3.2222 H       1  UNL1        0.0000
     64 H          -0.0320   -3.6823    2.0836 H       1  UNL1        0.0000
     65 H          -2.2912   -2.9430    0.5673 H       1  UNL1        0.0000
     66 H          -2.9661    0.9649    2.4867 H       1  UNL1        0.0000
     67 H           2.6846    1.3605    0.9191 H       1  UNL1        0.0000
     68 EU          0.8666    2.6950   -1.3131 Eu      1  UNL1        0.0000
@<TRIPOS>BOND
     1     1     2    2
     2     2     3   am
     3     3     4    1
     4     3     5    1
     5     5     6    1
     6     6     7    1
     7     2     8    1
     8     8     9   ar
     9     9    10   ar
    10     8    11   ar
    11    11    12   ar
    12    12    13   ar
    13    10    13   ar
    14    13    14   ar
    15    14    15   ar
    16    15    16   ar
    17    16    17   ar
    18    12    17   ar
    19    17    18   ar
    20    18    19   ar
    21    19    20    1
    22    20    21   ar
    23    21    22   ar
    24    22    23    1
    25    23    24    1
    26    23    25    1
    27    23    26    1
    28    26    27    1
    29    27    28    1
    30    28    29    1
    31    28    30    1
    32    22    31   ar
    33    28    31    1
    34    31    32   ar
    35    32    33   ar
    36    20    33   ar
    37    19    34   ar
    38    34    35   ar
    39    16    35   ar
    40     4    36    1
    41     4    37    1
    42     4    38    1
    43     5    39    1
    44     5    40    1
    45     6    41    1
    46     6    42    1
    47     7    43    1
    48     7    44    1
    49     7    45    1
    50     9    46    1
    51    10    47    1
    52    14    48    1
    53    15    49    1
    54    24    50    1
    55    24    51    1
    56    24    52    1
    57    25    53    1
    58    25    54    1
    59    25    55    1
    60    26    56    1
    61    26    57    1
    62    27    58    1
    63    27    59    1
    64    29    60    1
    65    29    61    1
    66    29    62    1
    67    30    63    1
    68    30    64    1
    69    30    65    1
    70    34    66    1
    71    35    67    1
    72    68     1    1
    73    68    33    1
    74    68    18    1
    75    68    11    1
@<TRIPOS>MOLECULE
*****
 68 75 0 0 0
SMALL
GASTEIGER

@<TRIPOS>ATOM
      1 O          -2.4881    1.2777   -1.9932 O.2     1  UNL1        0.0000
      2 C          -2.1222    0.6105   -1.7742 C.2     1  UNL1        0.0000
      3 N          -2.1366   -2.0387    1.7023 N.am    1  UNL1        0.0000
      4 C          -2.9601   -2.0078    3.0925 C.3     1  UNL1        0.0000
      5 C          -0.6239   -2.7974    2.9226 C.3     1  UNL1        0.0000
      6 C           1.4434   -2.9854    1.7661 C.3     1  UNL1        0.0000
      7 C          -0.6897   -2.5931   -2.1557 C.3     1  UNL1        0.0000
      8 C           0.5552    1.8643   -2.2724 C.ar    1  UNL1        0.0000
      9 C           1.2247    1.1776   -1.8170 C.ar    1  UNL1        0.0000
     10 C           0.4178   -0.7936   -3.6408 C.ar    1  UNL1        0.0000
     11 N           1.1297    2.4322   -2.5187 N.ar    1  UNL1        0.0000
     12 C           2.4579    0.8955   -3.3658 C.ar    1  UNL1        0.0000
     13 C           1.2898   -1.1196   -3.9805 C.ar    1  UNL1        0.0000
     14 C           1.5033   -3.6651   -1.9960 C.ar    1  UNL1        0.0000
     15 C           1.8665   -2.2933   -0.0126 C.ar    1  UNL1        0.0000
     16 C           2.3563   -1.2905   -0.1081 C.ar    1  UNL1        0.0000
     17 C           2.9997   -0.1974   -0.7792 C.ar    1  UNL1        0.0000
     18 N           2.1536    1.0281    0.2508 N.ar    1  UNL1        0.0000
     19 C           0.0837   -0.7450    1.3438 C.ar    1  UNL1        0.0000
     20 C          -1.0661   -0.3406    1.8784 C.ar    1  UNL1        0.0000
     21 N          -2.9917   -0.7992    0.6669 N.ar    1  UNL1        0.0000
     22 C          -3.4075   -0.4563   -0.1782 C.ar    1  UNL1        0.0000
     23 C          -2.4292   -1.2781   -1.0802 C.3     1  UNL1        0.0000
     24 C          -0.7238   -0.6587   -1.0861 C.3     1  UNL1        0.0000
     25 C          -0.2602   -0.3055   -1.3528 C.3     1  UNL1        0.0000
     26 C          -0.1507    0.1445   -0.8508 C.3     1  UNL1        0.0000
     27 C          -1.6474    0.7929    0.3447 C.3     1  UNL1        0.0000
     28 C          -0.3287    1.0601    0.3528 C.3     1  UNL1        0.0000
     29 C           1.2002    2.8066    0.8138 C.3     1  UNL1        0.0000
     30 C          -0.4311   -2.7920    0.9226 C.3     1  UNL1        0.0000
     31 C          -2.6846    1.5319    0.0884 C.ar    1  UNL1        0.0000
     32 N          -2.5800    2.8370    0.4159 N.ar    1  UNL1        0.0000
     33 N          -1.0443    2.6122    1.2677 N.ar    1  UNL1        0.0000
     34 C           0.0003   -0.7815    1.1470 C.ar    1  UNL1        0.0000
     35 C           1.5400   -0.7813    0.3190 C.ar    1  UNL1        0.0000
     36 H          -2.8720   -0.8442    2.6301 H       1  UNL1        0.0000
     37 H          -1.9732   -3.8391    4.0392 H       1  UNL1        0.0000
     38 H          -1.9511   -0.9179    3.8232 H       1  UNL1        0.0000
     39 H           1.9413   -4.1200    0.5746 H       1  UNL1        0.0000
     40 H          -1.2540   -3.0115    2.7854 H       1  UNL1        0.0000
     41 H           3.1079   -2.0651    2.6358 H       1  UNL1        0.0000
     42 H          -0.5736   -3.5345   -0.7666 H       1  UNL1        0.0000
     43 H          -0.7324    0.6179   -3.5580 H       1  UNL1        0.0000
     44 H           1.2016   -1.0178   -1.8184 H       1  UNL1        0.0000
     45 H           0.3411   -2.5056   -2.8531 H       1  UNL1        0.0000
     46 H           1.0837    1.0069    1.6383 H       1  UNL1        0.0000
     47 H          -0.6666   -2.4936   -4.1016 H       1  UNL1        0.0000
     48 H           2.5858   -4.5983   -1.6850 H       1  UNL1        0.0000
     49 H           0.9598   -1.9626    3.1390 H       1  UNL1        0.0000
     50 H          -1.1463   -1.8357   -0.4215 H       1  UNL1        0.0000
     51 H          -0.9235   -1.7401   -0.4921 H       1  UNL1        0.0000
     52 H          -1.2469    2.1410   -2.7722 H       1  UNL1        0.0000
     53 H           2.2425   -2.0853   -1.8260 H       1  UNL1        0.0000
     54 H          -0.7284    2.1631   -0.9815 H       1  UNL1        0.0000
     55 H           0.5924   -2.1758   -1.1634 H       1  UNL1        0.0000
     56 H           3.0518    1.4888   -1.1612 H       1  UNL1        0.0000
     57 H           2.3811   -0.6737   -2.5939 H       1  UNL1        0.0000
     58 H          -3.7341   -0.3896   -2.2311 H       1  UNL1        0.0000
     59 H           1.4048   -0.5066    2.3960 H       1  UNL1        0.0000
     60 H          -2.3820    2.5531    2.2237 H       1  UNL1        0.0000
     61 H           3.3363    2.9261   -1.5986 H       1  UNL1        0.0000
     62 H           3.0046    3.2316   -1.0160 H       1  UNL1        0.0000
     63 H          -0.2424    0.4279    3.1466 H       1  UNL1        0.0000
     64 H           0.0255   -4.0387    1.7563 H       1  UNL1        0.0000
     65 H          -2.0995   -3.2020    0.3283 H       1  UNL1        0.0000
     66 H          -2.6565    0.7389    2.2369 H       1  UNL1        0.0000
     67 H           2.8837    0.9737    1.8351 H       1  UNL1        0.0000
     68 EU          0.7528    3.3604   -1.2584 Eu      1  UNL1        0.0000
@<TRIPOS>BOND
     1     1     2    2
     2     2     3   am
     3     3     4    1
     4     3     5    1
     5     5     6    1
     6     6     7    1
     7     2     8    1
     8     8     9   ar
     9     9    10   ar
    10     8    11   ar
    11    11    12   ar
    12    12    13   ar
    13    10    13   ar
    14    13    14   ar
    15    14    15   ar
    16    15    16   ar
    17    16    17   ar
    18    12    17   ar
    19    17    18   ar
    20    18    19   ar
    21    19    20    1
    22    20    21   ar
    23    21    22   ar
    24    22    23    1
    25    23    24    1
    26    23    25    1
    27    23    26    1
    28    26    27    1
    29    27    28    1
    30    28    29    1
    31    28    30    1
    32    22    31   ar
    33    28    31    1
    34    31    32   ar
    35    32    33   ar
    36    20    33   ar
    37    19    34   ar
    38    34    35   ar
    39    16    35   ar
    40     4    36    1
    41     4    37    1
    42     4    38    1
    43     5    39    1
    44     5    40    1
    45     6    41    1
    46     6    42    1
    47     7    43    1
    48     7    44    1
    49     7    45    1
    50     9    46    1
    51    10    47    1
    52    14    48    1
    53    15    49    1
    54    24    50    1
    55    24    51    1
    56    24    52    1
    57    25    53    1
    58    25    54    1
    59    25    55    1
    60    26    56    1
    61    26    57    1
    62    27    58    1
    63    27    59    1
    64    29    60    1
    65    29    61    1
    66    29    62    1
    67    30    63    1
    68    30    64    1
    69    30    65    1
    70    34    66    1
    71    35    67    1
    72    68     1    1
    73    68    33    1
    74    68    18    1
    75    68    11    1
@<TRIPOS>MOLECULE
*****
 68 75 0 0 0
SMALL
GASTEIGER

@<TRIPOS>ATOM
      1 O          -2.5480    1.4093   -1.9217 O.2     1  UNL1        0.0000
      2 C          -2.1473    0.6273   -1.7396 C.2     1  UNL1        0.0000
      3 N          -2.1084   -1.9248    1.6204 N.am    1  UNL1        0.0000
      4 C          -2.9310   -1.9945    3.0784 C.3     1  UNL1        0.0000
      5 C          -0.4570   -2.8257    2.8701 C.3     1  UNL1        0.0000
      6 C           1.3551   -3.1408    1.6235 C.3     1  UNL1        0.0000
      7 C          -0.5493   -2.5048   -2.2221 C.3     1  UNL1        0.0000
      8 C           0.5589    1.7343   -2.3091 C.ar    1  UNL1        0.0000
      9 C           1.1113    1.1640   -1.8829 C.ar    1  UNL1        0.0000
     10 C           0.4748   -0.8244   -3.6449 C.ar    1  UNL1        0.0000
     11 N           1.1878    2.3427   -2.5397 N.ar    1  UNL1        0.0000
     12 C           2.5176    0.8554   -3.2932 C.ar    1  UNL1        0.0000
     13 C           1.4175   -1.1746   -3.9173 C.ar    1  UNL1        0.0000
     14 C           1.6080   -3.5878   -1.9940 C.ar    1  UNL1        0.0000
     15 C           2.0771   -2.2608   -0.0155 C.ar    1  UNL1        0.0000
     16 C           2.3987   -1.3083   -0.1024 C.ar    1  UNL1        0.0000
     17 C           2.9515   -0.1653   -0.7586 C.ar    1  UNL1        0.0000
     18 N           2.0664    0.9559    0.1700 N.ar    1  UNL1        0.0000
     19 C           0.0941   -0.6721    1.3587 C.ar    1  UNL1        0.0000
     20 C          -1.1148   -0.1710    1.8536 C.ar    1  UNL1        0.0000
     21 N          -3.0814   -0.6472    0.7161 N.ar    1  UNL1        0.0000
     22 C          -3.3543   -0.3377   -0.1296 C.ar    1  UNL1        0.0000
     23 C          -2.1948   -1.3212   -1.0171 C.3     1  UNL1        0.0000
     24 C          -0.6748   -0.6515   -1.1845 C.3     1  UNL1        0.0000
     25 C          -0.2942   -0.3672   -1.3773 C.3     1  UNL1        0.0000
     26 C          -0.1201   -0.0222   -0.8936 C.3     1  UNL1        0.0000
     27 C          -1.4957    0.8292    0.1929 C.3     1  UNL1        0.0000
     28 C          -0.3424    1.0490    0.2192 C.3     1  UNL1        0.0000
     29 C           1.0946    2.8480    0.6356 C.3     1  UNL1        0.0000
     30 C          -0.4693   -2.6903    0.8664 C.3     1  UNL1        0.0000
     31 C          -2.6238    1.4857    0.2005 C.ar    1  UNL1        0.0000
     32 N          -2.4804    2.8062    0.4813 N.ar    1  UNL1        0.0000
     33 N          -1.0151    2.5888    1.2309 N.ar    1  UNL1        0.0000
     34 C           0.0324   -0.7138    1.2238 C.ar    1  UNL1        0.0000
     35 C           1.5374   -0.8752    0.4986 C.ar    1  UNL1        0.0000
     36 H          -2.9204   -0.9065    2.6997 H       1  UNL1        0.0000
     37 H          -2.0912   -3.7325    4.0220 H       1  UNL1        0.0000
     38 H          -2.0069   -0.9765    3.8064 H       1  UNL1        0.0000
     39 H           1.6808   -4.0393    0.8341 H       1  UNL1        0.0000
     40 H          -1.2474   -3.0679    2.7727 H       1  UNL1        0.0000
     41 H           2.9859   -2.1358    2.5615 H       1  UNL1        0.0000
     42 H          -0.3815   -3.5973   -0.6708 H       1  UNL1        0.0000
     43 H          -0.8334    0.3911   -3.4357 H       1  UNL1        0.0000
     44 H           1.1223   -1.0972   -1.9315 H       1  UNL1        0.0000
     45 H           0.2763   -2.5619   -2.8174 H       1  UNL1        0.0000
     46 H           1.0305    1.0777    1.4836 H       1  UNL1        0.0000
     47 H          -0.6313   -2.3547   -4.1713 H       1  UNL1        0.0000
     48 H           2.5361   -4.5762   -1.7291 H       1  UNL1        0.0000
     49 H           1.1430   -1.8930    2.9507 H       1  UNL1        0.0000
     50 H          -1.2456   -1.7463   -0.4904 H       1  UNL1        0.0000
     51 H          -1.0902   -1.7343   -0.4964 H       1  UNL1        0.0000
     52 H          -1.1829    1.9934   -2.7473 H       1  UNL1        0.0000
     53 H           2.2791   -2.0013   -1.8668 H       1  UNL1        0.0000
     54 H          -0.7949    2.1443   -1.0928 H       1  UNL1        0.0000
     55 H           0.5635   -2.1262   -0.9584 H       1  UNL1        0.0000
     56 H           2.8467    1.5051   -1.2748 H       1  UNL1        0.0000
     57 H           2.4289   -0.6391   -2.4626 H       1  UNL1        0.0000
     58 H          -3.6450   -0.3130   -2.0617 H       1  UNL1        0.0000
     59 H           1.3893   -0.2860    2.4409 H       1  UNL1        0.0000
     60 H          -2.2409    2.5847    2.3296 H       1  UNL1        0.0000
     61 H           3.1489    3.0447   -1.3982 H       1  UNL1        0.0000
     62 H           2.8479    3.2242   -0.8652 H       1  UNL1        0.0000
     63 H          -0.1014    0.2100    3.1887 H       1  UNL1        0.0000
     64 H          -0.1154   -4.1770    1.6312 H       1  UNL1        0.0000
     65 H          -2.0151   -3.2452    0.3146 H       1  UNL1        0.0000
     66 H          -2.5816    0.6943    2.1089 H       1  UNL1        0.0000
     67 H           2.8207    0.7987    1.8028 H       1  UNL1        0.0000
     68 EU          0.6647    3.3868   -1.2187 Eu      1  UNL1        0.0000
@<TRIPOS>BOND
     1     1     2    2
     2     2     3   am
     3     3     4    1
     4     3     5    1
     5     5     6    1
     6     6     7    1
     7     2     8    1
     8     8     9   ar
     9     9    10   ar
    10     8    11   ar
    11    11    12   ar
    12    12    13   ar
    13    10    13   ar
    14    13    14   ar
    15    14    15   ar
    16    15    16   ar
    17    16    17   ar
    18    12    17   ar
    19    17    18   ar
    20    18    19   ar
    21    19    20    1
    22    20    21   ar
    23    21    22   ar
    24    22    23    1
    25    23    24    1
    26    23    25    1
    27    23    26    1
    28    26    27    1
    29    27    28    1
    30    28    29    1
    31    28    30    1
    32    22    31   ar
    33    28    31    1
    34    31    32   ar
    35    32    33   ar
    36    20    33   ar
    37    19    34   ar
    38    34    35   ar
    39    16    35   ar
    40     4    36    1
    41     4    37    1
    42     4    38    1
    43     5    39    1
    44     5    40    1
    45     6    41    1
    46     6    42    1
    47     7    43    1
    48     7    44    1
    49     7    45    1
    50     9    46    1
    51    10    47    1
    52    14    48    1
    53    15    49    1
    54    24    50    1
    55    24    51    1
    56    24    52    1
    57    25    53    1
    58    25    54    1
    59    25    55    1
    60    26    56    1
    61    26    57    1
    62    27    58    1
    63    27    59    1
    64    29    60    1
    65    29    61    1
    66    29    62    1
    67    30    63    1
    68    30    64    1
    69    30    65    1
    70    34    66    1
    71    35    67    1
    72    68     1    1
    73    68    33    1
    74    68    18    1
    75    68    11    1
@<TRIPOS>MOLECULE
*****
 68 75 0 0 0
SMALL
GASTEIGER

@<TRIPOS>ATOM
      1 O          -2.5678    1.4660   -1.8992 O.2     1  UNL1        0.0000
      2 C          -2.1515    0.6326   -1.7302 C.2     1  UNL1        0.0000
      3 N          -2.1035   -1.8809    1.5945 N.am    1  UNL1        0.0000
      4 C          -2.9258   -1.9872    3.0671 C.3     1  UNL1        0.0000
      5 C          -0.3986   -2.8373    2.8485 C.3     1  UNL1        0.0000
      6 C           1.3304   -3.2068    1.5600 C.3     1  UNL1        0.0000
      7 C          -0.4830   -2.5021   -2.2279 C.3     1  UNL1        0.0000
      8 C           0.5629    1.6901   -2.3285 C.ar    1  UNL1        0.0000
      9 C           1.0666    1.1634   -1.9211 C.ar    1  UNL1        0.0000
     10 C           0.4970   -0.8254   -3.6726 C.ar    1  UNL1        0.0000
     11 N           1.2062    2.3124   -2.5512 N.ar    1  UNL1        0.0000
     12 C           2.5454    0.8514   -3.2687 C.ar    1  UNL1        0.0000
     13 C           1.4722   -1.1916   -3.9005 C.ar    1  UNL1        0.0000
     14 C           1.6413   -3.5680   -1.9925 C.ar    1  UNL1        0.0000
     15 C           2.1454   -2.2507   -0.0081 C.ar    1  UNL1        0.0000
     16 C           2.4192   -1.3127   -0.0973 C.ar    1  UNL1        0.0000
     17 C           2.9508   -0.1414   -0.7401 C.ar    1  UNL1        0.0000
     18 N           2.0402    0.9257    0.1385 N.ar    1  UNL1        0.0000
     19 C           0.1154   -0.6225    1.3844 C.ar    1  UNL1        0.0000
     20 C          -1.1031   -0.1181    1.8644 C.ar    1  UNL1        0.0000
     21 N          -3.1077   -0.5895    0.7407 N.ar    1  UNL1        0.0000
     22 C          -3.3377   -0.2885   -0.0974 C.ar    1  UNL1        0.0000
     23 C          -2.1189   -1.3262   -0.9922 C.3     1  UNL1        0.0000
     24 C          -0.6600   -0.6449   -1.2219 C.3     1  UNL1        0.0000
     25 C          -0.2878   -0.3901   -1.3866 C.3     1  UNL1        0.0000
     26 C          -0.0962   -0.0743   -0.9028 C.3     1  UNL1        0.0000
     27 C          -1.4383    0.8362    0.1675 C.3     1  UNL1        0.0000
     28 C          -0.3506    1.0475    0.1742 C.3     1  UNL1        0.0000
     29 C           1.0652    2.8563    0.5982 C.3     1  UNL1        0.0000
     30 C          -0.4788   -2.6436    0.8449 C.3     1  UNL1        0.0000
     31 C          -2.5959    1.4772    0.2282 C.ar    1  UNL1        0.0000
     32 N          -2.4488    2.7935    0.5085 N.ar    1  UNL1        0.0000
     33 N          -1.0036    2.5817    1.2222 N.ar    1  UNL1        0.0000
     34 C           0.0556   -0.6732    1.2583 C.ar    1  UNL1        0.0000
     35 C           1.5319   -0.9056    0.5581 C.ar    1  UNL1        0.0000
     36 H          -2.9356   -0.9204    2.7230 H       1  UNL1        0.0000
     37 H          -2.1361   -3.6875    4.0136 H       1  UNL1        0.0000
     38 H          -2.0272   -0.9990    3.7994 H       1  UNL1        0.0000
     39 H           1.5880   -4.0008    0.9272 H       1  UNL1        0.0000
     40 H          -1.2378   -3.0883    2.7659 H       1  UNL1        0.0000
     41 H           2.9389   -2.1696    2.5265 H       1  UNL1        0.0000
     42 H          -0.3065   -3.6347   -0.6437 H       1  UNL1        0.0000
     43 H          -0.8755    0.3030   -3.3893 H       1  UNL1        0.0000
     44 H           1.0950   -1.1672   -1.9762 H       1  UNL1        0.0000
     45 H           0.2554   -2.5816   -2.8104 H       1  UNL1        0.0000
     46 H           1.0039    1.1184    1.4397 H       1  UNL1        0.0000
     47 H          -0.6119   -2.2994   -4.1940 H       1  UNL1        0.0000
     48 H           2.5190   -4.5661   -1.7435 H       1  UNL1        0.0000
     49 H           1.2152   -1.8804    2.8589 H       1  UNL1        0.0000
     50 H          -1.2927   -1.7263   -0.5155 H       1  UNL1        0.0000
     51 H          -1.1665   -1.7275   -0.5187 H       1  UNL1        0.0000
     52 H          -1.1696    1.9345   -2.7586 H       1  UNL1        0.0000
     53 H           2.3081   -1.9865   -1.8653 H       1  UNL1        0.0000
     54 H          -0.8132    2.1416   -1.1380 H       1  UNL1        0.0000
     55 H           0.5537   -2.1048   -0.8778 H       1  UNL1        0.0000
     56 H           2.7768    1.5132   -1.3223 H       1  UNL1        0.0000
     57 H           2.4201   -0.6170   -2.4110 H       1  UNL1        0.0000
     58 H          -3.6314   -0.3039   -2.0072 H       1  UNL1        0.0000
     59 H           1.3937   -0.1932    2.4589 H       1  UNL1        0.0000
     60 H          -2.1822    2.6010    2.3709 H       1  UNL1        0.0000
     61 H           3.0723    3.0804   -1.3164 H       1  UNL1        0.0000
     62 H           2.7866    3.2210   -0.8103 H       1  UNL1        0.0000
     63 H          -0.0571    0.1097    3.2151 H       1  UNL1        0.0000
     64 H          -0.1756   -4.2131    1.5847 H       1  UNL1        0.0000
     65 H          -1.9821   -3.2564    0.3148 H       1  UNL1        0.0000
     66 H          -2.5867    0.7025    2.0723 H       1  UNL1        0.0000
     67 H           2.7924    0.7296    1.7852 H       1  UNL1        0.0000
     68 EU          0.6266    3.3938   -1.2178 Eu      1  UNL1        0.0000
@<TRIPOS>BOND
     1     1     2    2
     2     2     3   am
     3     3     4    1
     4     3     5    1
     5     5     6    1
     6     6     7    1
     7     2     8    1
     8     8     9   ar
     9     9    10   ar
    10     8    11   ar
    11    11    12   ar
    12    12    13   ar
    13    10    13   ar
    14    13    14   ar
    15    14    15   ar
    16    15    16   ar
    17    16    17   ar
    18    12    17   ar
    19    17    18   ar
    20    18    19   ar
    21    19    20    1
    22    20    21   ar
    23    21    22   ar
    24    22    23    1
    25    23    24    1
    26    23    25    1
    27    23    26    1
    28    26    27    1
    29    27    28    1
    30    28    29    1
    31    28    30    1
    32    22    31   ar
    33    28    31    1
    34    31    32   ar
    35    32    33   ar
    36    20    33   ar
    37    19    34   ar
    38    34    35   ar
    39    16    35   ar
    40     4    36    1
    41     4    37    1
    42     4    38    1
    43     5    39    1
    44     5    40    1
    45     6    41    1
    46     6    42    1
    47     7    43    1
    48     7    44    1
    49     7    45    1
    50     9    46    1
    51    10    47    1
    52    14    48    1
    53    15    49    1
    54    24    50    1
    55    24    51    1
    56    24    52    1
    57    25    53    1
    58    25    54    1
    59    25    55    1
    60    26    56    1
    61    26    57    1
    62    27    58    1
    63    27    59    1
    64    29    60    1
    65    29    61    1
    66    29    62    1
    67    30    63    1
    68    30    64    1
    69    30    65    1
    70    34    66    1
    71    35    67    1
    72    68     1    1
    73    68    33    1
    74    68    18    1
    75    68    11    1
@<TRIPOS>MOLECULE
*****
 68 75 0 0 0
SMALL
GASTEIGER

@<TRIPOS>ATOM
      1 O          -2.5831    1.5181   -1.8809 O.2     1  UNL1        0.0000
      2 C          -2.1536    0.6372   -1.7202 C.2     1  UNL1        0.0000
      3 N          -2.0981   -1.8399    1.5726 N.am    1  UNL1        0.0000
      4 C          -2.9218   -1.9802    3.0550 C.3     1  UNL1        0.0000
      5 C          -0.3511   -2.8464    2.8252 C.3     1  UNL1        0.0000
      6 C           1.3099   -3.2693    1.4988 C.3     1  UNL1        0.0000
      7 C          -0.4239   -2.5112   -2.2245 C.3     1  UNL1        0.0000
      8 C           0.5649    1.6521   -2.3489 C.ar    1  UNL1        0.0000
      9 C           1.0264    1.1640   -1.9626 C.ar    1  UNL1        0.0000
     10 C           0.5165   -0.8205   -3.7048 C.ar    1  UNL1        0.0000
     11 N           1.2208    2.2882   -2.5643 N.ar    1  UNL1        0.0000
     12 C           2.5744    0.8503   -3.2479 C.ar    1  UNL1        0.0000
     13 C           1.5249   -1.2047   -3.8882 C.ar    1  UNL1        0.0000
     14 C           1.6706   -3.5519   -1.9914 C.ar    1  UNL1        0.0000
     15 C           2.1988   -2.2427    0.0015 C.ar    1  UNL1        0.0000
     16 C           2.4377   -1.3155   -0.0927 C.ar    1  UNL1        0.0000
     17 C           2.9560   -0.1163   -0.7205 C.ar    1  UNL1        0.0000
     18 N           2.0165    0.8994    0.1112 N.ar    1  UNL1        0.0000
     19 C           0.1396   -0.5721    1.4093 C.ar    1  UNL1        0.0000
     20 C          -1.0941   -0.0623    1.8826 C.ar    1  UNL1        0.0000
     21 N          -3.1279   -0.5364    0.7652 N.ar    1  UNL1        0.0000
     22 C          -3.3242   -0.2442   -0.0665 C.ar    1  UNL1        0.0000
     23 C          -2.0563   -1.3267   -0.9696 C.3     1  UNL1        0.0000
     24 C          -0.6482   -0.6416   -1.2575 C.3     1  UNL1        0.0000
     25 C          -0.2716   -0.4136   -1.3918 C.3     1  UNL1        0.0000
     26 C          -0.0676   -0.1154   -0.9074 C.3     1  UNL1        0.0000
     27 C          -1.3872    0.8380    0.1493 C.3     1  UNL1        0.0000
     28 C          -0.3604    1.0473    0.1360 C.3     1  UNL1        0.0000
     29 C           1.0433    2.8653    0.5748 C.3     1  UNL1        0.0000
     30 C          -0.4809   -2.5940    0.8239 C.3     1  UNL1        0.0000
     31 C          -2.5690    1.4736    0.2474 C.ar    1  UNL1        0.0000
     32 N          -2.4223    2.7819    0.5348 N.ar    1  UNL1        0.0000
     33 N          -0.9941    2.5759    1.2168 N.ar    1  UNL1        0.0000
     34 C           0.0805   -0.6314    1.2886 C.ar    1  UNL1        0.0000
     35 C           1.5366   -0.9268    0.6209 C.ar    1  UNL1        0.0000
     36 H          -2.9483   -0.9295    2.7431 H       1  UNL1        0.0000
     37 H          -2.1765   -3.6448    4.0046 H       1  UNL1        0.0000
     38 H          -2.0452   -1.0193    3.7928 H       1  UNL1        0.0000
     39 H           1.5097   -3.9635    1.0073 H       1  UNL1        0.0000
     40 H          -1.2266   -3.1067    2.7598 H       1  UNL1        0.0000
     41 H           2.9017   -2.2050    2.4906 H       1  UNL1        0.0000
     42 H          -0.2383   -3.6706   -0.6154 H       1  UNL1        0.0000
     43 H          -0.9127    0.2191   -3.3478 H       1  UNL1        0.0000
     44 H           1.0676   -1.2536   -2.0175 H       1  UNL1        0.0000
     45 H           0.2401   -2.5985   -2.8082 H       1  UNL1        0.0000
     46 H           0.9822    1.1604    1.4018 H       1  UNL1        0.0000
     47 H          -0.5923   -2.2484   -4.2111 H       1  UNL1        0.0000
     48 H           2.5045   -4.5565   -1.7556 H       1  UNL1        0.0000
     49 H           1.2749   -1.8742    2.7696 H       1  UNL1        0.0000
     50 H          -1.3388   -1.7109   -0.5407 H       1  UNL1        0.0000
     51 H          -1.2374   -1.7200   -0.5453 H       1  UNL1        0.0000
     52 H          -1.1631    1.8780   -2.7783 H       1  UNL1        0.0000
     53 H           2.3425   -1.9742   -1.8599 H       1  UNL1        0.0000
     54 H          -0.8257    2.1405   -1.1782 H       1  UNL1        0.0000
     55 H           0.5463   -2.0849   -0.8094 H       1  UNL1        0.0000
     56 H           2.7186    1.5212   -1.3593 H       1  UNL1        0.0000
     57 H           2.3891   -0.5917   -2.3603 H       1  UNL1        0.0000
     58 H          -3.6245   -0.3027   -1.9601 H       1  UNL1        0.0000
     59 H           1.4059   -0.1062    2.4765 H       1  UNL1        0.0000
     60 H          -2.1267    2.6183    2.4097 H       1  UNL1        0.0000
     61 H           3.0010    3.1072   -1.2410 H       1  UNL1        0.0000
     62 H           2.7308    3.2174   -0.7616 H       1  UNL1        0.0000
     63 H          -0.0281    0.0097    3.2479 H       1  UNL1        0.0000
     64 H          -0.2335   -4.2369    1.5434 H       1  UNL1        0.0000
     65 H          -1.9517   -3.2636    0.3171 H       1  UNL1        0.0000
     66 H          -2.6020    0.7151    2.0545 H       1  UNL1        0.0000
     67 H           2.7687    0.6684    1.7677 H       1  UNL1        0.0000
     68 EU          0.5913    3.3991   -1.2221 Eu      1  UNL1        0.0000
@<TRIPOS>BOND
     1     1     2    2
     2     2     3   am
     3     3     4    1
     4     3     5    1
     5     5     6    1
     6     6     7    1
     7     2     8    1
     8     8     9   ar
     9     9    10   ar
    10     8    11   ar
    11    11    12   ar
    12    12    13   ar
    13    10    13   ar
    14    13    14   ar
    15    14    15   ar
    16    15    16   ar
    17    16    17   ar
    18    12    17   ar
    19    17    18   ar
    20    18    19   ar
    21    19    20    1
    22    20    21   ar
    23    21    22   ar
    24    22    23    1
    25    23    24    1
    26    23    25    1
    27    23    26    1
    28    26    27    1
    29    27    28    1
    30    28    29    1
    31    28    30    1
    32    22    31   ar
    33    28    31    1
    34    31    32   ar
    35    32    33   ar
    36    20    33   ar
    37    19    34   ar
    38    34    35   ar
    39    16    35   ar
    40     4    36    1
    41     4    37    1
    42     4    38    1
    43     5    39    1
    44     5    40    1
    45     6    41    1
    46     6    42    1
    47     7    43    1
    48     7    44    1
    49     7    45    1
    50     9    46    1
    51    10    47    1
    52    14    48    1
    53    15    49    1
    54    24    50    1
    55    24    51    1
    56    24    52    1
    57    25    53    1
    58    25    54    1
    59    25    55    1
    60    26    56    1
    61    26    57    1
    62    27    58    1
    63    27    59    1
    64    29    60    1
    65    29    61    1
    66    29    62    1
    67    30    63    1
    68    30    64    1
    69    30    65    1
    70    34    66    1
    71    35    67    1
    72    68     1    1
    73    68    33    1
    74    68    18    1
    75    68    11    1
@<TRIPOS>MOLECULE
*****
 68 75 0 0 0
SMALL
GASTEIGER

@<TRIPOS>ATOM
      1 O          -2.5949    1.5664   -1.8655 O.2     1  UNL1        0.0000
      2 C          -2.1546    0.6412   -1.7103 C.2     1  UNL1        0.0000
      3 N          -2.0910   -1.8001    1.5531 N.am    1  UNL1        0.0000
      4 C          -2.9181   -1.9731    3.0421 C.3     1  UNL1        0.0000
      5 C          -0.3126   -2.8534    2.8001 C.3     1  UNL1        0.0000
      6 C           1.2914   -3.3288    1.4384 C.3     1  UNL1        0.0000
      7 C          -0.3730   -2.5281   -2.2151 C.3     1  UNL1        0.0000
      8 C           0.5646    1.6183   -2.3710 C.ar    1  UNL1        0.0000
      9 C           0.9904    1.1646   -2.0066 C.ar    1  UNL1        0.0000
     10 C           0.5349   -0.8106   -3.7365 C.ar    1  UNL1        0.0000
     11 N           1.2322    2.2685   -2.5795 N.ar    1  UNL1        0.0000
     12 C           2.6058    0.8482   -3.2291 C.ar    1  UNL1        0.0000
     13 C           1.5776   -1.2143   -3.8780 C.ar    1  UNL1        0.0000
     14 C           1.6998   -3.5360   -1.9908 C.ar    1  UNL1        0.0000
     15 C           2.2435   -2.2369    0.0107 C.ar    1  UNL1        0.0000
     16 C           2.4531   -1.3135   -0.0879 C.ar    1  UNL1        0.0000
     17 C           2.9643   -0.0915   -0.7019 C.ar    1  UNL1        0.0000
     18 N           1.9934    0.8742    0.0879 N.ar    1  UNL1        0.0000
     19 C           0.1562   -0.5450    1.4219 C.ar    1  UNL1        0.0000
     20 C          -1.0855   -0.0082    1.9044 C.ar    1  UNL1        0.0000
     21 N          -3.1445   -0.4863    0.7897 N.ar    1  UNL1        0.0000
     22 C          -3.3122   -0.2030   -0.0372 C.ar    1  UNL1        0.0000
     23 C          -2.0021   -1.3248   -0.9487 C.3     1  UNL1        0.0000
     24 C          -0.6387   -0.6396   -1.2917 C.3     1  UNL1        0.0000
     25 C          -0.2452   -0.4402   -1.3938 C.3     1  UNL1        0.0000
     26 C          -0.0348   -0.1485   -0.9099 C.3     1  UNL1        0.0000
     27 C          -1.3394    0.8356    0.1345 C.3     1  UNL1        0.0000
     28 C          -0.3707    1.0469    0.1034 C.3     1  UNL1        0.0000
     29 C           1.0259    2.8781    0.5588 C.3     1  UNL1        0.0000
     30 C          -0.4795   -2.5483    0.8028 C.3     1  UNL1        0.0000
     31 C          -2.5431    1.4729    0.2623 C.ar    1  UNL1        0.0000
     32 N          -2.3987    2.7708    0.5607 N.ar    1  UNL1        0.0000
     33 N          -0.9867    2.5706    1.2132 N.ar    1  UNL1        0.0000
     34 C           0.0892   -0.6059    1.3050 C.ar    1  UNL1        0.0000
     35 C           1.5503   -0.9563    0.6863 C.ar    1  UNL1        0.0000
     36 H          -2.9599   -0.9358    2.7615 H       1  UNL1        0.0000
     37 H          -2.2138   -3.6032    3.9947 H       1  UNL1        0.0000
     38 H          -2.0618   -1.0382    3.7865 H       1  UNL1        0.0000
     39 H           1.4416   -3.9273    1.0786 H       1  UNL1        0.0000
     40 H          -1.2145   -3.1241    2.7543 H       1  UNL1        0.0000
     41 H           2.8769   -2.2443    2.4527 H       1  UNL1        0.0000
     42 H          -0.1749   -3.7041   -0.5843 H       1  UNL1        0.0000
     43 H          -0.9462    0.1356   -3.3099 H       1  UNL1        0.0000
     44 H           1.0382   -1.3565   -2.0585 H       1  UNL1        0.0000
     45 H           0.2289   -2.6142   -2.8096 H       1  UNL1        0.0000
     46 H           0.9636    1.2005    1.3672 H       1  UNL1        0.0000
     47 H          -0.5723   -2.1997   -4.2242 H       1  UNL1        0.0000
     48 H           2.4919   -4.5472   -1.7661 H       1  UNL1        0.0000
     49 H           1.3207   -1.8718    2.6836 H       1  UNL1        0.0000
     50 H          -1.3836   -1.6973   -0.5669 H       1  UNL1        0.0000
     51 H          -1.3027   -1.7119   -0.5741 H       1  UNL1        0.0000
     52 H          -1.1616    1.8215   -2.8033 H       1  UNL1        0.0000
     53 H           2.3796   -1.9588   -1.8544 H       1  UNL1        0.0000
     54 H          -0.8339    2.1396   -1.2157 H       1  UNL1        0.0000
     55 H           0.5430   -2.0658   -0.7530 H       1  UNL1        0.0000
     56 H           2.6681    1.5293   -1.3857 H       1  UNL1        0.0000
     57 H           2.3319   -0.5623   -2.3074 H       1  UNL1        0.0000
     58 H          -3.6196   -0.3059   -1.9169 H       1  UNL1        0.0000
     59 H           1.4112   -0.0228    2.4911 H       1  UNL1        0.0000
     60 H          -2.0721    2.6369    2.4477 H       1  UNL1        0.0000
     61 H           2.9330    3.1281   -1.1699 H       1  UNL1        0.0000
     62 H           2.6786    3.2137   -0.7168 H       1  UNL1        0.0000
     63 H          -0.0103   -0.0955    3.2807 H       1  UNL1        0.0000
     64 H          -0.2906   -4.2515    1.5049 H       1  UNL1        0.0000
     65 H          -1.9224   -3.2677    0.3210 H       1  UNL1        0.0000
     66 H          -2.6172    0.7227    2.0532 H       1  UNL1        0.0000
     67 H           2.7519    0.6135    1.7488 H       1  UNL1        0.0000
     68 EU          0.5584    3.4028   -1.2289 Eu      1  UNL1        0.0000
@<TRIPOS>BOND
     1     1     2    2
     2     2     3   am
     3     3     4    1
     4     3     5    1
     5     5     6    1
     6     6     7    1
     7     2     8    1
     8     8     9   ar
     9     9    10   ar
    10     8    11   ar
    11    11    12   ar
    12    12    13   ar
    13    10    13   ar
    14    13    14   ar
    15    14    15   ar
    16    15    16   ar
    17    16    17   ar
    18    12    17   ar
    19    17    18   ar
    20    18    19   ar
    21    19    20    1
    22    20    21   ar
    23    21    22   ar
    24    22    23    1
    25    23    24    1
    26    23    25    1
    27    23    26    1
    28    26    27    1
    29    27    28    1
    30    28    29    1
    31    28    30    1
    32    22    31   ar
    33    28    31    1
    34    31    32   ar
    35    32    33   ar
    36    20    33   ar
    37    19    34   ar
    38    34    35   ar
    39    16    35   ar
    40     4    36    1
    41     4    37    1
    42     4    38    1
    43     5    39    1
    44     5    40    1
    45     6    41    1
    46     6    42    1
    47     7    43    1
    48     7    44    1
    49     7    45    1
    50     9    46    1
    51    10    47    1
    52    14    48    1
    53    15    49    1
    54    24    50    1
    55    24    51    1
    56    24    52    1
    57    25    53    1
    58    25    54    1
    59    25    55    1
    60    26    56    1
    61    26    57    1
    62    27    58    1
    63    27    59    1
    64    29    60    1
    65    29    61    1
    66    29    62    1
    67    30    63    1
    68    30    64    1
    69    30    65    1
    70    34    66    1
    71    35    67    1
    72    68     1    1
    73    68    33    1
    74    68    18    1
    75    68    11    1
@<TRIPOS>MOLECULE
*****
 68 75 0 0 0
SMALL
GASTEIGER

@<TRIPOS>ATOM
      1 O          -2.6055    1.6276   -1.8473 O.2     1  UNL1        0.0000
      2 C          -2.1504    0.6423   -1.6963 C.2     1  UNL1        0.0000
      3 N          -2.0781   -1.7436    1.5292 N.am    1  UNL1        0.0000
      4 C          -2.9133   -1.9624    3.0222 C.3     1  UNL1        0.0000
      5 C          -0.2716   -2.8610    2.7636 C.3     1  UNL1        0.0000
      6 C           1.2662   -3.4059    1.3526 C.3     1  UNL1        0.0000
      7 C          -0.3162   -2.5701   -2.1968 C.3     1  UNL1        0.0000
      8 C           0.5610    1.5757   -2.4060 C.ar    1  UNL1        0.0000
      9 C           0.9453    1.1664   -2.0722 C.ar    1  UNL1        0.0000
     10 C           0.5609   -0.7900   -3.7743 C.ar    1  UNL1        0.0000
     11 N           1.2441    2.2449   -2.6041 N.ar    1  UNL1        0.0000
     12 C           2.6540    0.8359   -3.2005 C.ar    1  UNL1        0.0000
     13 C           1.6550   -1.2218   -3.8635 C.ar    1  UNL1        0.0000
     14 C           1.7470   -3.5103   -1.9902 C.ar    1  UNL1        0.0000
     15 C           2.2968   -2.2309    0.0239 C.ar    1  UNL1        0.0000
     16 C           2.4749   -1.3040   -0.0796 C.ar    1  UNL1        0.0000
     17 C           2.9763   -0.0613   -0.6798 C.ar    1  UNL1        0.0000
     18 N           1.9606    0.8422    0.0588 N.ar    1  UNL1        0.0000
     19 C           0.1758   -0.4742    1.4523 C.ar    1  UNL1        0.0000
     20 C          -1.0705    0.0877    1.9432 C.ar    1  UNL1        0.0000
     21 N          -3.1648   -0.4209    0.8225 N.ar    1  UNL1        0.0000
     22 C          -3.2957   -0.1492    0.0012 C.ar    1  UNL1        0.0000
     23 C          -1.9303   -1.3172   -0.9171 C.3     1  UNL1        0.0000
     24 C          -0.6158   -0.6470   -1.3743 C.3     1  UNL1        0.0000
     25 C          -0.1601   -0.4883   -1.3613 C.3     1  UNL1        0.0000
     26 C           0.0154   -0.1837   -0.9116 C.3     1  UNL1        0.0000
     27 C          -1.2724    0.8192    0.1128 C.3     1  UNL1        0.0000
     28 C          -0.3900    1.0467    0.0585 C.3     1  UNL1        0.0000
     29 C           1.0055    2.9054    0.5428 C.3     1  UNL1        0.0000
     30 C          -0.4713   -2.4788    0.7771 C.3     1  UNL1        0.0000
     31 C          -2.5084    1.4744    0.2801 C.ar    1  UNL1        0.0000
     32 N          -2.3681    2.7546    0.5969 N.ar    1  UNL1        0.0000
     33 N          -0.9803    2.5615    1.2086 N.ar    1  UNL1        0.0000
     34 C           0.1154   -0.5507    1.3395 C.ar    1  UNL1        0.0000
     35 C           1.5783   -0.9723    0.7600 C.ar    1  UNL1        0.0000
     36 H          -2.9753   -0.9418    2.7860 H       1  UNL1        0.0000
     37 H          -2.2628   -3.5452    3.9786 H       1  UNL1        0.0000
     38 H          -2.0834   -1.0633    3.7777 H       1  UNL1        0.0000
     39 H           1.3580   -3.8781    1.1685 H       1  UNL1        0.0000
     40 H          -1.1966   -3.1480    2.7481 H       1  UNL1        0.0000
     41 H           2.8622   -2.3090    2.3959 H       1  UNL1        0.0000
     42 H          -0.0924   -3.7463   -0.5364 H       1  UNL1        0.0000
     43 H          -0.9881    0.0152   -3.2629 H       1  UNL1        0.0000
     44 H           0.9995   -1.5331   -2.1254 H       1  UNL1        0.0000
     45 H           0.2187   -2.6360   -2.8164 H       1  UNL1        0.0000
     46 H           0.9425    1.2578    1.3203 H       1  UNL1        0.0000
     47 H          -0.5435   -2.1333   -4.2375 H       1  UNL1        0.0000
     48 H           2.4767   -4.5345   -1.7789 H       1  UNL1        0.0000
     49 H           1.3629   -1.8750    2.5715 H       1  UNL1        0.0000
     50 H          -1.4412   -1.6779   -0.6086 H       1  UNL1        0.0000
     51 H          -1.3828   -1.6977   -0.6192 H       1  UNL1        0.0000
     52 H          -1.1657    1.7399   -2.8460 H       1  UNL1        0.0000
     53 H           2.4364   -1.9247   -1.8505 H       1  UNL1        0.0000
     54 H          -0.8381    2.1365   -1.2664 H       1  UNL1        0.0000
     55 H           0.5520   -2.0405   -0.6971 H       1  UNL1        0.0000
     56 H           2.6051    1.5409   -1.4061 H       1  UNL1        0.0000
     57 H           2.2025   -0.5146   -2.2262 H       1  UNL1        0.0000
     58 H          -3.6115   -0.3147   -1.8599 H       1  UNL1        0.0000
     59 H           1.4105    0.0982    2.5226 H       1  UNL1        0.0000
     60 H          -1.9940    2.6667    2.5008 H       1  UNL1        0.0000
     61 H           2.8409    3.1507   -1.0753 H       1  UNL1        0.0000
     62 H           2.6092    3.2087   -0.6582 H       1  UNL1        0.0000
     63 H           0.0017   -0.2545    3.3209 H       1  UNL1        0.0000
     64 H          -0.3701   -4.2590    1.4536 H       1  UNL1        0.0000
     65 H          -1.8815   -3.2684    0.3280 H       1  UNL1        0.0000
     66 H          -2.6395    0.7288    2.0589 H       1  UNL1        0.0000
     67 H           2.7417    0.5425    1.7187 H       1  UNL1        0.0000
     68 EU          0.5152    3.4053   -1.2401 Eu      1  UNL1        0.0000
@<TRIPOS>BOND
     1     1     2    2
     2     2     3   am
     3     3     4    1
     4     3     5    1
     5     5     6    1
     6     6     7    1
     7     2     8    1
     8     8     9   ar
     9     9    10   ar
    10     8    11   ar
    11    11    12   ar
    12    12    13   ar
    13    10    13   ar
    14    13    14   ar
    15    14    15   ar
    16    15    16   ar
    17    16    17   ar
    18    12    17   ar
    19    17    18   ar
    20    18    19   ar
    21    19    20    1
    22    20    21   ar
    23    21    22   ar
    24    22    23    1
    25    23    24    1
    26    23    25    1
    27    23    26    1
    28    26    27    1
    29    27    28    1
    30    28    29    1
    31    28    30    1
    32    22    31   ar
    33    28    31    1
    34    31    32   ar
    35    32    33   ar
    36    20    33   ar
    37    19    34   ar
    38    34    35   ar
    39    16    35   ar
    40     4    36    1
    41     4    37    1
    42     4    38    1
    43     5    39    1
    44     5    40    1
    45     6    41    1
    46     6    42    1
    47     7    43    1
    48     7    44    1
    49     7    45    1
    50     9    46    1
    51    10    47    1
    52    14    48    1
    53    15    49    1
    54    24    50    1
    55    24    51    1
    56    24    52    1
    57    25    53    1
    58    25    54    1
    59    25    55    1
    60    26    56    1
    61    26    57    1
    62    27    58    1
    63    27    59    1
    64    29    60    1
    65    29    61    1
    66    29    62    1
    67    30    63    1
    68    30    64    1
    69    30    65    1
    70    34    66    1
    71    35    67    1
    72    68     1    1
    73    68    33    1
    74    68    18    1
    75    68    11    1
@<TRIPOS>MOLECULE
*****
 68 75 0 0 0
SMALL
GASTEIGER

@<TRIPOS>ATOM
      1 O          -2.6111    1.6742   -1.8342 O.2     1  UNL1        0.0000
      2 C          -2.1488    0.6461   -1.6853 C.2     1  UNL1        0.0000
      3 N          -2.0640   -1.6937    1.5119 N.am    1  UNL1        0.0000
      4 C          -2.9096   -1.9518    3.0031 C.3     1  UNL1        0.0000
      5 C          -0.2470   -2.8655    2.7325 C.3     1  UNL1        0.0000
      6 C           1.2446   -3.4645    1.2782 C.3     1  UNL1        0.0000
      7 C          -0.2833   -2.6084   -2.1748 C.3     1  UNL1        0.0000
      8 C           0.5560    1.5447   -2.4407 C.ar    1  UNL1        0.0000
      9 C           0.9105    1.1676   -2.1281 C.ar    1  UNL1        0.0000
     10 C           0.5848   -0.7677   -3.7964 C.ar    1  UNL1        0.0000
     11 N           1.2519    2.2250   -2.6269 N.ar    1  UNL1        0.0000
     12 C           2.6959    0.8082   -3.1677 C.ar    1  UNL1        0.0000
     13 C           1.7251   -1.2247   -3.8413 C.ar    1  UNL1        0.0000
     14 C           1.7974   -3.4843   -1.9886 C.ar    1  UNL1        0.0000
     15 C           2.3385   -2.2280    0.0332 C.ar    1  UNL1        0.0000
     16 C           2.4932   -1.3019   -0.0699 C.ar    1  UNL1        0.0000
     17 C           2.9831   -0.0436   -0.6699 C.ar    1  UNL1        0.0000
     18 N           1.9351    0.8190    0.0389 N.ar    1  UNL1        0.0000
     19 C           0.2049   -0.3872    1.4702 C.ar    1  UNL1        0.0000
     20 C          -1.0546    0.1733    1.9806 C.ar    1  UNL1        0.0000
     21 N          -3.1802   -0.3690    0.8484 N.ar    1  UNL1        0.0000
     22 C          -3.2816   -0.1068    0.0316 C.ar    1  UNL1        0.0000
     23 C          -1.8765   -1.3076   -0.8912 C.3     1  UNL1        0.0000
     24 C          -0.6063   -0.6562   -1.4106 C.3     1  UNL1        0.0000
     25 C          -0.1000   -0.5242   -1.3534 C.3     1  UNL1        0.0000
     26 C           0.0523   -0.2002   -0.9120 C.3     1  UNL1        0.0000
     27 C          -1.2227    0.8031    0.1003 C.3     1  UNL1        0.0000
     28 C          -0.4074    1.0471    0.0238 C.3     1  UNL1        0.0000
     29 C           0.9894    2.9377    0.5344 C.3     1  UNL1        0.0000
     30 C          -0.4650   -2.4279    0.7573 C.3     1  UNL1        0.0000
     31 C          -2.4800    1.4764    0.2950 C.ar    1  UNL1        0.0000
     32 N          -2.3442    2.7404    0.6275 N.ar    1  UNL1        0.0000
     33 N          -0.9782    2.5539    1.2058 N.ar    1  UNL1        0.0000
     34 C           0.1336   -0.4894    1.3747 C.ar    1  UNL1        0.0000
     35 C           1.6020   -0.9974    0.8008 C.ar    1  UNL1        0.0000
     36 H          -2.9884   -0.9447    2.8063 H       1  UNL1        0.0000
     37 H          -2.3021   -3.4955    3.9628 H       1  UNL1        0.0000
     38 H          -2.1007   -1.0838    3.7702 H       1  UNL1        0.0000
     39 H           1.2949   -3.8380    1.2387 H       1  UNL1        0.0000
     40 H          -1.1809   -3.1683    2.7447 H       1  UNL1        0.0000
     41 H           2.8602   -2.3732    2.3450 H       1  UNL1        0.0000
     42 H          -0.0270   -3.7787   -0.4949 H       1  UNL1        0.0000
     43 H          -1.0210   -0.0916   -3.2319 H       1  UNL1        0.0000
     44 H           0.9569   -1.6771   -2.1762 H       1  UNL1        0.0000
     45 H           0.2139   -2.6556   -2.8250 H       1  UNL1        0.0000
     46 H           0.9271    1.3057    1.2799 H       1  UNL1        0.0000
     47 H          -0.5175   -2.0772   -4.2450 H       1  UNL1        0.0000
     48 H           2.4659   -4.5237   -1.7882 H       1  UNL1        0.0000
     49 H           1.3868   -1.8877    2.4894 H       1  UNL1        0.0000
     50 H          -1.4837   -1.6611   -0.6452 H       1  UNL1        0.0000
     51 H          -1.4387   -1.6834   -0.6578 H       1  UNL1        0.0000
     52 H          -1.1738    1.6672   -2.8852 H       1  UNL1        0.0000
     53 H           2.4673   -1.8745   -1.8572 H       1  UNL1        0.0000
     54 H          -0.8371    2.1308   -1.3088 H       1  UNL1        0.0000
     55 H           0.5739   -2.0201   -0.6713 H       1  UNL1        0.0000
     56 H           2.5559    1.5509   -1.4123 H       1  UNL1        0.0000
     57 H           2.0504   -0.4716   -2.1513 H       1  UNL1        0.0000
     58 H          -3.6025   -0.3264   -1.8135 H       1  UNL1        0.0000
     59 H           1.3979    0.2078    2.5551 H       1  UNL1        0.0000
     60 H          -1.9233    2.6970    2.5464 H       1  UNL1        0.0000
     61 H           2.7645    3.1661   -0.9984 H       1  UNL1        0.0000
     62 H           2.5525    3.2052   -0.6109 H       1  UNL1        0.0000
     63 H           0.0029   -0.4003    3.3385 H       1  UNL1        0.0000
     64 H          -0.4373   -4.2549    1.4105 H       1  UNL1        0.0000
     65 H          -1.8465   -3.2647    0.3351 H       1  UNL1        0.0000
     66 H          -2.6562    0.7350    2.0824 H       1  UNL1        0.0000
     67 H           2.7372    0.4818    1.6929 H       1  UNL1        0.0000
     68 EU          0.4813    3.4047   -1.2505 Eu      1  UNL1        0.0000
@<TRIPOS>BOND
     1     1     2    2
     2     2     3   am
     3     3     4    1
     4     3     5    1
     5     5     6    1
     6     6     7    1
     7     2     8    1
     8     8     9   ar
     9     9    10   ar
    10     8    11   ar
    11    11    12   ar
    12    12    13   ar
    13    10    13   ar
    14    13    14   ar
    15    14    15   ar
    16    15    16   ar
    17    16    17   ar
    18    12    17   ar
    19    17    18   ar
    20    18    19   ar
    21    19    20    1
    22    20    21   ar
    23    21    22   ar
    24    22    23    1
    25    23    24    1
    26    23    25    1
    27    23    26    1
    28    26    27    1
    29    27    28    1
    30    28    29    1
    31    28    30    1
    32    22    31   ar
    33    28    31    1
    34    31    32   ar
    35    32    33   ar
    36    20    33   ar
    37    19    34   ar
    38    34    35   ar
    39    16    35   ar
    40     4    36    1
    41     4    37    1
    42     4    38    1
    43     5    39    1
    44     5    40    1
    45     6    41    1
    46     6    42    1
    47     7    43    1
    48     7    44    1
    49     7    45    1
    50     9    46    1
    51    10    47    1
    52    14    48    1
    53    15    49    1
    54    24    50    1
    55    24    51    1
    56    24    52    1
    57    25    53    1
    58    25    54    1
    59    25    55    1
    60    26    56    1
    61    26    57    1
    62    27    58    1
    63    27    59    1
    64    29    60    1
    65    29    61    1
    66    29    62    1
    67    30    63    1
    68    30    64    1
    69    30    65    1
    70    34    66    1
    71    35    67    1
    72    68     1    1
    73    68    33    1
    74    68    18    1
    75    68    11    1
@<TRIPOS>MOLECULE
*****
 68 75 0 0 0
SMALL
GASTEIGER

@<TRIPOS>ATOM
      1 O          -2.6138    1.7241   -1.8199 O.2     1  UNL1        0.0000
      2 C          -2.1451    0.6511   -1.6728 C.2     1  UNL1        0.0000
      3 N          -2.0439   -1.6309    1.4946 N.am    1  UNL1        0.0000
      4 C          -2.9059   -1.9361    2.9767 C.3     1  UNL1        0.0000
      5 C          -0.2284   -2.8698    2.6961 C.3     1  UNL1        0.0000
      6 C           1.2164   -3.5277    1.1863 C.3     1  UNL1        0.0000
      7 C          -0.2576   -2.6632   -2.1450 C.3     1  UNL1        0.0000
      8 C           0.5485    1.5147   -2.4885 C.ar    1  UNL1        0.0000
      9 C           0.8655    1.1732   -2.1945 C.ar    1  UNL1        0.0000
     10 C           0.6153   -0.7363   -3.8122 C.ar    1  UNL1        0.0000
     11 N           1.2593    2.1972   -2.6542 N.ar    1  UNL1        0.0000
     12 C           2.7381    0.7512   -3.1125 C.ar    1  UNL1        0.0000
     13 C           1.8137   -1.2256   -3.7958 C.ar    1  UNL1        0.0000
     14 C           1.8753   -3.4510   -1.9823 C.ar    1  UNL1        0.0000
     15 C           2.3830   -2.2295    0.0431 C.ar    1  UNL1        0.0000
     16 C           2.5234   -1.3007   -0.0589 C.ar    1  UNL1        0.0000
     17 C           2.9819   -0.0335   -0.6734 C.ar    1  UNL1        0.0000
     18 N           1.9095    0.7984    0.0196 N.ar    1  UNL1        0.0000
     19 C           0.2203   -0.3440    1.4844 C.ar    1  UNL1        0.0000
     20 C          -1.0371    0.2819    2.0239 C.ar    1  UNL1        0.0000
     21 N          -3.1973   -0.3088    0.8770 N.ar    1  UNL1        0.0000
     22 C          -3.2638   -0.0580    0.0666 C.ar    1  UNL1        0.0000
     23 C          -1.8152   -1.2928   -0.8632 C.3     1  UNL1        0.0000
     24 C          -0.5968   -0.6746   -1.4499 C.3     1  UNL1        0.0000
     25 C          -0.0192   -0.5686   -1.3378 C.3     1  UNL1        0.0000
     26 C           0.0846   -0.2035   -0.9095 C.3     1  UNL1        0.0000
     27 C          -1.1704    0.7783    0.0891 C.3     1  UNL1        0.0000
     28 C          -0.4270    1.0432   -0.0140 C.3     1  UNL1        0.0000
     29 C           0.9685    2.9902    0.5296 C.3     1  UNL1        0.0000
     30 C          -0.4564   -2.3769    0.7315 C.3     1  UNL1        0.0000
     31 C          -2.4479    1.4778    0.3151 C.ar    1  UNL1        0.0000
     32 N          -2.3176    2.7223    0.6650 N.ar    1  UNL1        0.0000
     33 N          -0.9788    2.5437    1.2027 N.ar    1  UNL1        0.0000
     34 C           0.1439   -0.4689    1.3949 C.ar    1  UNL1        0.0000
     35 C           1.6307   -1.0069    0.8337 C.ar    1  UNL1        0.0000
     36 H          -3.0051   -0.9467    2.8312 H       1  UNL1        0.0000
     37 H          -2.3479   -3.4338    3.9407 H       1  UNL1        0.0000
     38 H          -2.1209   -1.1081    3.7607 H       1  UNL1        0.0000
     39 H           1.2257   -3.7916    1.3201 H       1  UNL1        0.0000
     40 H          -1.1618   -3.1935    2.7431 H       1  UNL1        0.0000
     41 H           2.8607   -2.4611    2.2797 H       1  UNL1        0.0000
     42 H           0.0465   -3.8129   -0.4450 H       1  UNL1        0.0000
     43 H          -1.0604   -0.2273   -3.2109 H       1  UNL1        0.0000
     44 H           0.9022   -1.8293   -2.2385 H       1  UNL1        0.0000
     45 H           0.2126   -2.6821   -2.8369 H       1  UNL1        0.0000
     46 H           0.9065    1.3584    1.2284 H       1  UNL1        0.0000
     47 H          -0.4836   -2.0084   -4.2502 H       1  UNL1        0.0000
     48 H           2.4552   -4.5107   -1.7980 H       1  UNL1        0.0000
     49 H           1.4105   -1.9197    2.4144 H       1  UNL1        0.0000
     50 H          -1.5260   -1.6389   -0.6911 H       1  UNL1        0.0000
     51 H          -1.4923   -1.6628   -0.7052 H       1  UNL1        0.0000
     52 H          -1.1876    1.5729   -2.9357 H       1  UNL1        0.0000
     53 H           2.4786   -1.7932   -1.8752 H       1  UNL1        0.0000
     54 H          -0.8311    2.1200   -1.3621 H       1  UNL1        0.0000
     55 H           0.6178   -1.9980   -0.6629 H       1  UNL1        0.0000
     56 H           2.4984    1.5642   -1.4121 H       1  UNL1        0.0000
     57 H           1.8546   -0.4299   -2.0611 H       1  UNL1        0.0000
     58 H          -3.5872   -0.3456   -1.7583 H       1  UNL1        0.0000
     59 H           1.3617    0.3441    2.5859 H       1  UNL1        0.0000
     60 H          -1.8288    2.7422    2.6022 H       1  UNL1        0.0000
     61 H           2.6730    3.1823   -0.9080 H       1  UNL1        0.0000
     62 H           2.4855    3.2026   -0.5553 H       1  UNL1        0.0000
     63 H          -0.0063   -0.5810    3.3329 H       1  UNL1        0.0000
     64 H          -0.5164   -4.2379    1.3564 H       1  UNL1        0.0000
     65 H          -1.8025   -3.2545    0.3446 H       1  UNL1        0.0000
     66 H          -2.6754    0.7333    2.1279 H       1  UNL1        0.0000
     67 H           2.7272    0.4042    1.6671 H       1  UNL1        0.0000
     68 EU          0.4435    3.4006   -1.2635 Eu      1  UNL1        0.0000
@<TRIPOS>BOND
     1     1     2    2
     2     2     3   am
     3     3     4    1
     4     3     5    1
     5     5     6    1
     6     6     7    1
     7     2     8    1
     8     8     9   ar
     9     9    10   ar
    10     8    11   ar
    11    11    12   ar
    12    12    13   ar
    13    10    13   ar
    14    13    14   ar
    15    14    15   ar
    16    15    16   ar
    17    16    17   ar
    18    12    17   ar
    19    17    18   ar
    20    18    19   ar
    21    19    20    1
    22    20    21   ar
    23    21    22   ar
    24    22    23    1
    25    23    24    1
    26    23    25    1
    27    23    26    1
    28    26    27    1
    29    27    28    1
    30    28    29    1
    31    28    30    1
    32    22    31   ar
    33    28    31    1
    34    31    32   ar
    35    32    33   ar
    36    20    33   ar
    37    19    34   ar
    38    34    35   ar
    39    16    35   ar
    40     4    36    1
    41     4    37    1
    42     4    38    1
    43     5    39    1
    44     5    40    1
    45     6    41    1
    46     6    42    1
    47     7    43    1
    48     7    44    1
    49     7    45    1
    50     9    46    1
    51    10    47    1
    52    14    48    1
    53    15    49    1
    54    24    50    1
    55    24    51    1
    56    24    52    1
    57    25    53    1
    58    25    54    1
    59    25    55    1
    60    26    56    1
    61    26    57    1
    62    27    58    1
    63    27    59    1
    64    29    60    1
    65    29    61    1
    66    29    62    1
    67    30    63    1
    68    30    64    1
    69    30    65    1
    70    34    66    1
    71    35    67    1
    72    68     1    1
    73    68    33    1
    74    68    18    1
    75    68    11    1
@<TRIPOS>MOLECULE
*****
 68 75 0 0 0
SMALL
GASTEIGER

@<TRIPOS>ATOM
      1 O          -2.6115    1.7803   -1.8019 O.2     1  UNL1        0.0000
      2 C          -2.1409    0.6624   -1.6593 C.2     1  UNL1        0.0000
      3 N          -2.0109   -1.5460    1.4713 N.am    1  UNL1        0.0000
      4 C          -2.9020   -1.9088    2.9342 C.3     1  UNL1        0.0000
      5 C          -0.2221   -2.8729    2.6428 C.3     1  UNL1        0.0000
      6 C           1.1785   -3.6018    1.0641 C.3     1  UNL1        0.0000
      7 C          -0.2370   -2.7460   -2.1006 C.3     1  UNL1        0.0000
      8 C           0.5333    1.4835   -2.5618 C.ar    1  UNL1        0.0000
      9 C           0.8026    1.1774   -2.2807 C.ar    1  UNL1        0.0000
     10 C           0.6556   -0.6891   -3.8189 C.ar    1  UNL1        0.0000
     11 N           1.2634    2.1543   -2.6912 N.ar    1  UNL1        0.0000
     12 C           2.7734    0.6607   -3.0225 C.ar    1  UNL1        0.0000
     13 C           1.9264   -1.2213   -3.7124 C.ar    1  UNL1        0.0000
     14 C           2.0037   -3.3997   -1.9624 C.ar    1  UNL1        0.0000
     15 C           2.4453   -2.2463    0.0527 C.ar    1  UNL1        0.0000
     16 C           2.5668   -1.3045   -0.0443 C.ar    1  UNL1        0.0000
     17 C           2.9668   -0.0311   -0.6910 C.ar    1  UNL1        0.0000
     18 N           1.8898    0.7710    0.0082 N.ar    1  UNL1        0.0000
     19 C           0.2546   -0.2688    1.4935 C.ar    1  UNL1        0.0000
     20 C          -1.0094    0.4209    2.0691 C.ar    1  UNL1        0.0000
     21 N          -3.2128   -0.2226    0.9258 N.ar    1  UNL1        0.0000
     22 C          -3.2377    0.0074    0.1141 C.ar    1  UNL1        0.0000
     23 C          -1.7437   -1.2656   -0.8361 C.3     1  UNL1        0.0000
     24 C          -0.5909   -0.7046   -1.4912 C.3     1  UNL1        0.0000
     25 C           0.0402   -0.6248   -1.3052 C.3     1  UNL1        0.0000
     26 C           0.1087   -0.1874   -0.9013 C.3     1  UNL1        0.0000
     27 C          -1.1169    0.7416    0.0804 C.3     1  UNL1        0.0000
     28 C          -0.4518    1.0344   -0.0555 C.3     1  UNL1        0.0000
     29 C           0.9354    3.0763    0.5380 C.3     1  UNL1        0.0000
     30 C          -0.4495   -2.3297    0.6841 C.3     1  UNL1        0.0000
     31 C          -2.4100    1.4763    0.3436 C.ar    1  UNL1        0.0000
     32 N          -2.2858    2.6955    0.7165 N.ar    1  UNL1        0.0000
     33 N          -0.9853    2.5254    1.2014 N.ar    1  UNL1        0.0000
     34 C           0.1665   -0.4397    1.4304 C.ar    1  UNL1        0.0000
     35 C           1.6707   -1.0288    0.8611 C.ar    1  UNL1        0.0000
     36 H          -3.0309   -0.9473    2.8667 H       1  UNL1        0.0000
     37 H          -2.4081   -3.3459    3.9043 H       1  UNL1        0.0000
     38 H          -2.1475   -1.1403    3.7467 H       1  UNL1        0.0000
     39 H           1.1421   -3.7310    1.4264 H       1  UNL1        0.0000
     40 H          -1.1363   -3.2301    2.7460 H       1  UNL1        0.0000
     41 H           2.8602   -2.5978    2.1817 H       1  UNL1        0.0000
     42 H           0.1393   -3.8563   -0.3875 H       1  UNL1        0.0000
     43 H          -1.1154   -0.4269   -3.2147 H       1  UNL1        0.0000
     44 H           0.8133   -1.9842   -2.3194 H       1  UNL1        0.0000
     45 H           0.2184   -2.7236   -2.8533 H       1  UNL1        0.0000
     46 H           0.8727    1.4268    1.1480 H       1  UNL1        0.0000
     47 H          -0.4313   -1.9135   -4.2516 H       1  UNL1        0.0000
     48 H           2.4439   -4.4942   -1.8102 H       1  UNL1        0.0000
     49 H           1.4424   -1.9912    2.3533 H       1  UNL1        0.0000
     50 H          -1.5730   -1.6077   -0.7552 H       1  UNL1        0.0000
     51 H          -1.5494   -1.6321   -0.7700 H       1  UNL1        0.0000
     52 H          -1.2101    1.4307   -3.0099 H       1  UNL1        0.0000
     53 H           2.4572   -1.6817   -1.8939 H       1  UNL1        0.0000
     54 H          -0.8169    2.0941   -1.4297 H       1  UNL1        0.0000
     55 H           0.6907   -1.9710   -0.6784 H       1  UNL1        0.0000
     56 H           2.4178    1.5860   -1.4033 H       1  UNL1        0.0000
     57 H           1.6749   -0.3980   -1.9693 H       1  UNL1        0.0000
     58 H          -3.5563   -0.3818   -1.6831 H       1  UNL1        0.0000
     59 H           1.2976    0.5431    2.6105 H       1  UNL1        0.0000
     60 H          -1.6765    2.8239    2.6761 H       1  UNL1        0.0000
     61 H           2.5489    3.2031   -0.7881 H       1  UNL1        0.0000
     62 H           2.3954    3.2028   -0.4804 H       1  UNL1        0.0000
     63 H          -0.0405   -0.8197    3.2850 H       1  UNL1        0.0000
     64 H          -0.6119   -4.1976    1.2811 H       1  UNL1        0.0000
     65 H          -1.7414   -3.2328    0.3571 H       1  UNL1        0.0000
     66 H          -2.6778    0.7316    2.2250 H       1  UNL1        0.0000
     67 H           2.6975    0.2898    1.6487 H       1  UNL1        0.0000
     68 EU          0.3995    3.3876   -1.2784 Eu      1  UNL1        0.0000
@<TRIPOS>BOND
     1     1     2    2
     2     2     3   am
     3     3     4    1
     4     3     5    1
     5     5     6    1
     6     6     7    1
     7     2     8    1
     8     8     9   ar
     9     9    10   ar
    10     8    11   ar
    11    11    12   ar
    12    12    13   ar
    13    10    13   ar
    14    13    14   ar
    15    14    15   ar
    16    15    16   ar
    17    16    17   ar
    18    12    17   ar
    19    17    18   ar
    20    18    19   ar
    21    19    20    1
    22    20    21   ar
    23    21    22   ar
    24    22    23    1
    25    23    24    1
    26    23    25    1
    27    23    26    1
    28    26    27    1
    29    27    28    1
    30    28    29    1
    31    28    30    1
    32    22    31   ar
    33    28    31    1
    34    31    32   ar
    35    32    33   ar
    36    20    33   ar
    37    19    34   ar
    38    34    35   ar
    39    16    35   ar
    40     4    36    1
    41     4    37    1
    42     4    38    1
    43     5    39    1
    44     5    40    1
    45     6    41    1
    46     6    42    1
    47     7    43    1
    48     7    44    1
    49     7    45    1
    50     9    46    1
    51    10    47    1
    52    14    48    1
    53    15    49    1
    54    24    50    1
    55    24    51    1
    56    24    52    1
    57    25    53    1
    58    25    54    1
    59    25    55    1
    60    26    56    1
    61    26    57    1
    62    27    58    1
    63    27    59    1
    64    29    60    1
    65    29    61    1
    66    29    62    1
    67    30    63    1
    68    30    64    1
    69    30    65    1
    70    34    66    1
    71    35    67    1
    72    68     1    1
    73    68    33    1
    74    68    18    1
    75    68    11    1
@<TRIPOS>MOLECULE
*****
 68 75 0 0 0
SMALL
GASTEIGER

@<TRIPOS>ATOM
      1 O          -2.6006    1.8546   -1.7757 O.2     1  UNL1        0.0000
      2 C          -2.1552    0.7033   -1.6514 C.2     1  UNL1        0.0000
      3 N          -1.9470   -1.4206    1.4064 N.am    1  UNL1        0.0000
      4 C          -2.8988   -1.8432    2.8410 C.3     1  UNL1        0.0000
      5 C          -0.2451   -2.9122    2.5336 C.3     1  UNL1        0.0000
      6 C           1.1251   -3.7060    0.8906 C.3     1  UNL1        0.0000
      7 C          -0.2235   -2.8849   -2.0237 C.3     1  UNL1        0.0000
      8 C           0.4925    1.4214   -2.6956 C.ar    1  UNL1        0.0000
      9 C           0.7255    1.1397   -2.4231 C.ar    1  UNL1        0.0000
     10 C           0.7040   -0.6195   -3.8039 C.ar    1  UNL1        0.0000
     11 N           1.2579    2.0946   -2.7716 N.ar    1  UNL1        0.0000
     12 C           2.8224    0.5775   -2.8951 C.ar    1  UNL1        0.0000
     13 C           2.0565   -1.1982   -3.6033 C.ar    1  UNL1        0.0000
     14 C           2.2056   -3.3095   -1.9250 C.ar    1  UNL1        0.0000
     15 C           2.5399   -2.3001    0.0744 C.ar    1  UNL1        0.0000
     16 C           2.6516   -1.2975    0.0018 C.ar    1  UNL1        0.0000
     17 C           2.9630   -0.0168   -0.6855 C.ar    1  UNL1        0.0000
     18 N           1.9147    0.7190    0.0229 N.ar    1  UNL1        0.0000
     19 C           0.3313   -0.1413    1.4763 C.ar    1  UNL1        0.0000
     20 C          -0.9705    0.6539    2.0972 C.ar    1  UNL1        0.0000
     21 N          -3.2065   -0.0470    1.0596 N.ar    1  UNL1        0.0000
     22 C          -3.1973    0.1322    0.2058 C.ar    1  UNL1        0.0000
     23 C          -1.6794   -1.2050   -0.8275 C.3     1  UNL1        0.0000
     24 C          -0.6161   -0.7486   -1.5609 C.3     1  UNL1        0.0000
     25 C           0.0281   -0.7121   -1.2789 C.3     1  UNL1        0.0000
     26 C           0.1215   -0.1367   -0.8790 C.3     1  UNL1        0.0000
     27 C          -1.0691    0.6833    0.0712 C.3     1  UNL1        0.0000
     28 C          -0.5169    1.0172   -0.1099 C.3     1  UNL1        0.0000
     29 C           0.8597    3.2613    0.5967 C.3     1  UNL1        0.0000
     30 C          -0.4037   -2.2600    0.5961 C.3     1  UNL1        0.0000
     31 C          -2.3672    1.4751    0.3789 C.ar    1  UNL1        0.0000
     32 N          -2.2538    2.6486    0.8080 N.ar    1  UNL1        0.0000
     33 N          -1.0140    2.4887    1.2227 N.ar    1  UNL1        0.0000
     34 C           0.2352   -0.4282    1.5195 C.ar    1  UNL1        0.0000
     35 C           1.7427   -1.0407    0.9624 C.ar    1  UNL1        0.0000
     36 H          -3.0901   -0.9546    2.9377 H       1  UNL1        0.0000
     37 H          -2.5053   -3.1848    3.8234 H       1  UNL1        0.0000
     38 H          -2.1905   -1.1926    3.7178 H       1  UNL1        0.0000
     39 H           1.0023   -3.6600    1.5788 H       1  UNL1        0.0000
     40 H          -1.0970   -3.3026    2.7644 H       1  UNL1        0.0000
     41 H           2.8523   -2.8764    1.9926 H       1  UNL1        0.0000
     42 H           0.2798   -3.9270   -0.3257 H       1  UNL1        0.0000
     43 H          -1.2101   -0.8064   -3.2550 H       1  UNL1        0.0000
     44 H           0.6746   -2.1753   -2.4309 H       1  UNL1        0.0000
     45 H           0.2388   -2.8037   -2.8781 H       1  UNL1        0.0000
     46 H           0.8212    1.5504    0.9473 H       1  UNL1        0.0000
     47 H          -0.3084   -1.7744   -4.2621 H       1  UNL1        0.0000
     48 H           2.4224   -4.4660   -1.8334 H       1  UNL1        0.0000
     49 H           1.5121   -2.1579    2.3182 H       1  UNL1        0.0000
     50 H          -1.6584   -1.5726   -0.8557 H       1  UNL1        0.0000
     51 H          -1.6452   -1.5973   -0.8710 H       1  UNL1        0.0000
     52 H          -1.2498    1.1347   -3.1474 H       1  UNL1        0.0000
     53 H           2.3855   -1.5619   -1.8348 H       1  UNL1        0.0000
     54 H          -0.7924    2.0371   -1.5334 H       1  UNL1        0.0000
     55 H           0.8173   -1.9146   -0.7493 H       1  UNL1        0.0000
     56 H           2.2607    1.6265   -1.3714 H       1  UNL1        0.0000
     57 H           1.5873   -0.3162   -1.8816 H       1  UNL1        0.0000
     58 H          -3.4744   -0.4730   -1.5416 H       1  UNL1        0.0000
     59 H           1.1544    0.9174    2.5893 H       1  UNL1        0.0000
     60 H          -1.3330    3.0331    2.7772 H       1  UNL1        0.0000
     61 H           2.3389    3.2427   -0.5878 H       1  UNL1        0.0000
     62 H           2.2416    3.2173   -0.3493 H       1  UNL1        0.0000
     63 H          -0.1422   -1.1408    3.1570 H       1  UNL1        0.0000
     64 H          -0.7694   -4.0940    1.1285 H       1  UNL1        0.0000
     65 H          -1.6333   -3.1808    0.3713 H       1  UNL1        0.0000
     66 H          -2.6270    0.6659    2.5014 H       1  UNL1        0.0000
     67 H           2.6307    0.0891    1.6643 H       1  UNL1        0.0000
     68 EU          0.3446    3.3380   -1.2794 Eu      1  UNL1        0.0000
@<TRIPOS>BOND
     1     1     2    2
     2     2     3   am
     3     3     4    1
     4     3     5    1
     5     5     6    1
     6     6     7    1
     7     2     8    1
     8     8     9   ar
     9     9    10   ar
    10     8    11   ar
    11    11    12   ar
    12    12    13   ar
    13    10    13   ar
    14    13    14   ar
    15    14    15   ar
    16    15    16   ar
    17    16    17   ar
    18    12    17   ar
    19    17    18   ar
    20    18    19   ar
    21    19    20    1
    22    20    21   ar
    23    21    22   ar
    24    22    23    1
    25    23    24    1
    26    23    25    1
    27    23    26    1
    28    26    27    1
    29    27    28    1
    30    28    29    1
    31    28    30    1
    32    22    31   ar
    33    28    31    1
    34    31    32   ar
    35    32    33   ar
    36    20    33   ar
    37    19    34   ar
    38    34    35   ar
    39    16    35   ar
    40     4    36    1
    41     4    37    1
    42     4    38    1
    43     5    39    1
    44     5    40    1
    45     6    41    1
    46     6    42    1
    47     7    43    1
    48     7    44    1
    49     7    45    1
    50     9    46    1
    51    10    47    1
    52    14    48    1
    53    15    49    1
    54    24    50    1
    55    24    51    1
    56    24    52    1
    57    25    53    1
    58    25    54    1
    59    25    55    1
    60    26    56    1
    61    26    57    1
    62    27    58    1
    63    27    59    1
    64    29    60    1
    65    29    61    1
    66    29    62    1
    67    30    63    1
    68    30    64    1
    69    30    65    1
    70    34    66    1
    71    35    67    1
    72    68     1    1
    73    68    33    1
    74    68    18    1
    75    68    11    1
@<TRIPOS>MOLECULE
*****
 68 75 0 0 0
SMALL
GASTEIGER

@<TRIPOS>ATOM
      1 O          -2.5000    2.0635   -1.7511 O.2     1  UNL1        0.0000
      2 C          -2.1817    0.8137   -1.6465 C.2     1  UNL1        0.0000
      3 N          -2.1694   -1.3443    0.9633 N.am    1  UNL1        0.0000
      4 C          -3.0787   -1.6213    2.4667 C.3     1  UNL1        0.0000
      5 C          -0.5396   -3.3382    2.0206 C.3     1  UNL1        0.0000
      6 C           0.8402   -3.8658    0.4976 C.3     1  UNL1        0.0000
      7 C          -0.1883   -3.3090   -1.7921 C.3     1  UNL1        0.0000
      8 C           0.3656    1.1174   -3.2818 C.ar    1  UNL1        0.0000
      9 C           0.5830    0.6550   -2.9969 C.ar    1  UNL1        0.0000
     10 C           1.0591   -0.6736   -3.7791 C.ar    1  UNL1        0.0000
     11 N           1.3999    1.9583   -2.9898 N.ar    1  UNL1        0.0000
     12 C           2.9031    0.4866   -2.5679 C.ar    1  UNL1        0.0000
     13 C           2.4105   -1.1078   -3.0206 C.ar    1  UNL1        0.0000
     14 C           2.6995   -2.7427   -1.8115 C.ar    1  UNL1        0.0000
     15 C           2.6680   -2.3698    0.0727 C.ar    1  UNL1        0.0000
     16 C           2.8593   -1.1093    0.2212 C.ar    1  UNL1        0.0000
     17 C           3.1166    0.1448   -0.4430 C.ar    1  UNL1        0.0000
     18 N           1.9885    1.0628    0.5297 N.ar    1  UNL1        0.0000
     19 C           0.8155    0.3448    1.6776 C.ar    1  UNL1        0.0000
     20 C          -1.3515    1.4282    2.3191 C.ar    1  UNL1        0.0000
     21 N          -2.7044    0.6782    1.9653 N.ar    1  UNL1        0.0000
     22 C          -3.0220    0.6661    0.6243 C.ar    1  UNL1        0.0000
     23 C          -1.2755   -0.9400   -0.9320 C.3     1  UNL1        0.0000
     24 C          -1.0294   -1.0052   -2.0416 C.3     1  UNL1        0.0000
     25 C           0.0003   -0.7602   -1.4963 C.3     1  UNL1        0.0000
     26 C           0.1386    0.0561   -0.7275 C.3     1  UNL1        0.0000
     27 C          -0.8874    0.3631    0.3039 C.3     1  UNL1        0.0000
     28 C          -0.7697    1.0868    0.1833 C.3     1  UNL1        0.0000
     29 C           0.6500    3.2477    0.7670 C.3     1  UNL1        0.0000
     30 C          -0.1602   -1.7071    0.7220 C.3     1  UNL1        0.0000
     31 C          -2.5013    1.6970    0.3709 C.ar    1  UNL1        0.0000
     32 N          -2.5311    2.7460    1.0483 N.ar    1  UNL1        0.0000
     33 N          -1.4192    2.6902    1.4946 N.ar    1  UNL1        0.0000
     34 C           0.8650   -0.3186    2.2215 C.ar    1  UNL1        0.0000
     35 C           2.1094   -0.9039    1.5751 C.ar    1  UNL1        0.0000
     36 H          -3.4543   -0.9586    3.1002 H       1  UNL1        0.0000
     37 H          -2.7480   -2.6711    3.3643 H       1  UNL1        0.0000
     38 H          -2.4040   -1.5570    3.5729 H       1  UNL1        0.0000
     39 H           0.5243   -3.8149    1.7881 H       1  UNL1        0.0000
     40 H          -1.0223   -3.6323    2.8709 H       1  UNL1        0.0000
     41 H           2.4479   -4.1189    1.2259 H       1  UNL1        0.0000
     42 H           0.5390   -4.1858   -0.3875 H       1  UNL1        0.0000
     43 H          -1.1732   -2.5597   -3.1136 H       1  UNL1        0.0000
     44 H           0.4939   -2.7112   -2.5715 H       1  UNL1        0.0000
     45 H           0.3033   -3.0803   -2.8407 H       1  UNL1        0.0000
     46 H           0.7075    1.8829   -0.7153 H       1  UNL1        0.0000
     47 H           0.1718   -1.3828   -4.3316 H       1  UNL1        0.0000
     48 H           2.3611   -4.0891   -1.9223 H       1  UNL1        0.0000
     49 H           1.9940   -2.7281    1.9050 H       1  UNL1        0.0000
     50 H          -1.8134   -1.6266   -1.2520 H       1  UNL1        0.0000
     51 H          -1.8131   -1.6407   -1.2657 H       1  UNL1        0.0000
     52 H          -1.3529   -0.1783   -3.2031 H       1  UNL1        0.0000
     53 H           1.2008   -1.4159   -1.4104 H       1  UNL1        0.0000
     54 H          -0.5225    1.5723   -1.6744 H       1  UNL1        0.0000
     55 H           0.9832   -1.6665   -1.1093 H       1  UNL1        0.0000
     56 H           1.6578    0.9428   -1.3368 H       1  UNL1        0.0000
     57 H           1.3742    0.4376   -1.1704 H       1  UNL1        0.0000
     58 H          -3.1497   -0.5560   -0.7657 H       1  UNL1        0.0000
     59 H           0.3791    1.9831    2.0690 H       1  UNL1        0.0000
     60 H           0.0418    3.6950    2.2995 H       1  UNL1        0.0000
     61 H           1.7749    3.3732    0.0370 H       1  UNL1        0.0000
     62 H           1.7875    3.3356    0.1354 H       1  UNL1        0.0000
     63 H          -0.5856   -1.5541    2.4625 H       1  UNL1        0.0000
     64 H          -1.1230   -3.2477    0.2471 H       1  UNL1        0.0000
     65 H          -1.1797   -2.8714    0.2478 H       1  UNL1        0.0000
     66 H          -1.0188   -0.2131    3.1992 H       1  UNL1        0.0000
     67 H           2.7699   -0.3000    1.9935 H       1  UNL1        0.0000
     68 EU          0.0842    3.2972   -1.1468 Eu      1  UNL1        0.0000
@<TRIPOS>BOND
     1     1     2    2
     2     2     3   am
     3     3     4    1
     4     3     5    1
     5     5     6    1
     6     6     7    1
     7     2     8    1
     8     8     9   ar
     9     9    10   ar
    10     8    11   ar
    11    11    12   ar
    12    12    13   ar
    13    10    13   ar
    14    13    14   ar
    15    14    15   ar
    16    15    16   ar
    17    16    17   ar
    18    12    17   ar
    19    17    18   ar
    20    18    19   ar
    21    19    20    1
    22    20    21   ar
    23    21    22   ar
    24    22    23    1
    25    23    24    1
    26    23    25    1
    27    23    26    1
    28    26    27    1
    29    27    28    1
    30    28    29    1
    31    28    30    1
    32    22    31   ar
    33    28    31    1
    34    31    32   ar
    35    32    33   ar
    36    20    33   ar
    37    19    34   ar
    38    34    35   ar
    39    16    35   ar
    40     4    36    1
    41     4    37    1
    42     4    38    1
    43     5    39    1
    44     5    40    1
    45     6    41    1
    46     6    42    1
    47     7    43    1
    48     7    44    1
    49     7    45    1
    50     9    46    1
    51    10    47    1
    52    14    48    1
    53    15    49    1
    54    24    50    1
    55    24    51    1
    56    24    52    1
    57    25    53    1
    58    25    54    1
    59    25    55    1
    60    26    56    1
    61    26    57    1
    62    27    58    1
    63    27    59    1
    64    29    60    1
    65    29    61    1
    66    29    62    1
    67    30    63    1
    68    30    64    1
    69    30    65    1
    70    34    66    1
    71    35    67    1
    72    68     1    1
    73    68    33    1
    74    68    18    1
    75    68    11    1
@<TRIPOS>MOLECULE
*****
 68 75 0 0 0
SMALL
GASTEIGER

@<TRIPOS>ATOM
      1 O          -2.5405    1.9377   -1.6567 O.2     1  UNL1        0.0000
      2 C          -2.2747    0.7092   -1.7068 C.2     1  UNL1        0.0000
      3 N          -2.2899   -1.4841    0.6862 N.am    1  UNL1        0.0000
      4 C          -3.1304   -1.5361    2.2127 C.3     1  UNL1        0.0000
      5 C          -1.1877   -3.4395    1.4610 C.3     1  UNL1        0.0000
      6 C           0.4333   -4.0080    0.2366 C.3     1  UNL1        0.0000
      7 C          -0.0687   -3.6989   -1.7076 C.3     1  UNL1        0.0000
      8 C           0.3023    1.0380   -3.3873 C.ar    1  UNL1        0.0000
      9 C           0.6784    0.4863   -2.9862 C.ar    1  UNL1        0.0000
     10 C           1.3463   -0.7062   -3.5740 C.ar    1  UNL1        0.0000
     11 N           1.2313    1.9745   -3.0979 N.ar    1  UNL1        0.0000
     12 C           2.7147    0.8044   -2.1262 C.ar    1  UNL1        0.0000
     13 C           2.5050   -0.8576   -2.5870 C.ar    1  UNL1        0.0000
     14 C           2.7700   -2.3436   -1.6737 C.ar    1  UNL1        0.0000
     15 C           2.7553   -2.1967   -0.0804 C.ar    1  UNL1        0.0000
     16 C           2.8511   -0.8737    0.4444 C.ar    1  UNL1        0.0000
     17 C           2.9511    0.5600   -0.2065 C.ar    1  UNL1        0.0000
     18 N           1.8928    1.2872    0.7715 N.ar    1  UNL1        0.0000
     19 C           0.9941    0.8734    2.1825 C.ar    1  UNL1        0.0000
     20 C          -1.1566    1.5660    2.6529 C.ar    1  UNL1        0.0000
     21 N          -2.3890    0.7308    2.2151 N.ar    1  UNL1        0.0000
     22 C          -2.7738    0.8063    0.7820 C.ar    1  UNL1        0.0000
     23 C          -0.9272   -0.5317   -0.7466 C.3     1  UNL1        0.0000
     24 C          -1.3872   -1.3416   -2.1707 C.3     1  UNL1        0.0000
     25 C          -0.3239   -0.8941   -1.6712 C.3     1  UNL1        0.0000
     26 C           0.1460    0.1856   -0.4158 C.3     1  UNL1        0.0000
     27 C          -0.7597    0.2073    0.3504 C.3     1  UNL1        0.0000
     28 C          -0.5145    1.3918    0.4576 C.3     1  UNL1        0.0000
     29 C           0.6823    3.2643    0.8470 C.3     1  UNL1        0.0000
     30 C          -0.0850   -1.3363    1.1113 C.3     1  UNL1        0.0000
     31 C          -2.3618    1.8917    0.5336 C.ar    1  UNL1        0.0000
     32 N          -2.6545    2.8194    1.3745 N.ar    1  UNL1        0.0000
     33 N          -1.4925    2.9170    1.8339 N.ar    1  UNL1        0.0000
     34 C           1.2549   -0.2606    2.7469 C.ar    1  UNL1        0.0000
     35 C           2.4198   -0.8743    1.9303 C.ar    1  UNL1        0.0000
     36 H          -3.6271   -0.8578    2.9955 H       1  UNL1        0.0000
     37 H          -2.9026   -2.4761    2.9514 H       1  UNL1        0.0000
     38 H          -2.4386   -1.5044    3.2111 H       1  UNL1        0.0000
     39 H           0.0836   -3.6264    1.8828 H       1  UNL1        0.0000
     40 H          -1.0613   -3.6359    2.7320 H       1  UNL1        0.0000
     41 H           1.6157   -4.4573    0.7001 H       1  UNL1        0.0000
     42 H           0.5527   -4.5745   -0.5514 H       1  UNL1        0.0000
     43 H          -0.8848   -3.4004   -2.6125 H       1  UNL1        0.0000
     44 H           0.5184   -3.0556   -2.5057 H       1  UNL1        0.0000
     45 H           0.4356   -3.2810   -2.6887 H       1  UNL1        0.0000
     46 H           1.1287    1.6811   -1.3971 H       1  UNL1        0.0000
     47 H           0.5037   -1.2591   -4.2463 H       1  UNL1        0.0000
     48 H           2.4801   -3.5429   -1.9306 H       1  UNL1        0.0000
     49 H           2.5159   -2.8526    0.9966 H       1  UNL1        0.0000
     50 H          -2.1746   -1.9451   -1.6631 H       1  UNL1        0.0000
     51 H          -2.1752   -1.9486   -1.6706 H       1  UNL1        0.0000
     52 H          -1.5950   -0.6211   -3.2466 H       1  UNL1        0.0000
     53 H           0.7246   -1.5680   -1.4063 H       1  UNL1        0.0000
     54 H          -0.5394    1.2821   -1.7014 H       1  UNL1        0.0000
     55 H           0.6863   -1.6313   -1.2623 H       1  UNL1        0.0000
     56 H           1.1043    0.1350   -0.7583 H       1  UNL1        0.0000
     57 H           1.1022    0.1353   -0.7526 H       1  UNL1        0.0000
     58 H          -2.9319   -0.5239   -0.5741 H       1  UNL1        0.0000
     59 H          -0.3220    1.4609    0.8073 H       1  UNL1        0.0000
     60 H           0.4743    3.8066    1.8222 H       1  UNL1        0.0000
     61 H           1.6585    3.4358    0.1767 H       1  UNL1        0.0000
     62 H           1.7057    3.3975    0.2737 H       1  UNL1        0.0000
     63 H          -0.5406   -1.5161    2.0295 H       1  UNL1        0.0000
     64 H          -0.6062   -2.2754    0.0436 H       1  UNL1        0.0000
     65 H          -0.5625   -2.2514    0.0764 H       1  UNL1        0.0000
     66 H           0.1723   -0.4170    3.2914 H       1  UNL1        0.0000
     67 H           3.1212   -0.2378    2.2462 H       1  UNL1        0.0000
     68 EU         -0.1250    2.9960   -0.9460 Eu      1  UNL1        0.0000
@<TRIPOS>BOND
     1     1     2    2
     2     2     3   am
     3     3     4    1
     4     3     5    1
     5     5     6    1
     6     6     7    1
     7     2     8    1
     8     8     9   ar
     9     9    10   ar
    10     8    11   ar
    11    11    12   ar
    12    12    13   ar
    13    10    13   ar
    14    13    14   ar
    15    14    15   ar
    16    15    16   ar
    17    16    17   ar
    18    12    17   ar
    19    17    18   ar
    20    18    19   ar
    21    19    20    1
    22    20    21   ar
    23    21    22   ar
    24    22    23    1
    25    23    24    1
    26    23    25    1
    27    23    26    1
    28    26    27    1
    29    27    28    1
    30    28    29    1
    31    28    30    1
    32    22    31   ar
    33    28    31    1
    34    31    32   ar
    35    32    33   ar
    36    20    33   ar
    37    19    34   ar
    38    34    35   ar
    39    16    35   ar
    40     4    36    1
    41     4    37    1
    42     4    38    1
    43     5    39    1
    44     5    40    1
    45     6    41    1
    46     6    42    1
    47     7    43    1
    48     7    44    1
    49     7    45    1
    50     9    46    1
    51    10    47    1
    52    14    48    1
    53    15    49    1
    54    24    50    1
    55    24    51    1
    56    24    52    1
    57    25    53    1
    58    25    54    1
    59    25    55    1
    60    26    56    1
    61    26    57    1
    62    27    58    1
    63    27    59    1
    64    29    60    1
    65    29    61    1
    66    29    62    1
    67    30    63    1
    68    30    64    1
    69    30    65    1
    70    34    66    1
    71    35    67    1
    72    68     1    1
    73    68    33    1
    74    68    18    1
    75    68    11    1
@<TRIPOS>MOLECULE
*****
 68 75 0 0 0
SMALL
GASTEIGER

@<TRIPOS>ATOM
      1 O          -2.7713    1.4835   -1.5459 O.2     1  UNL1        0.0000
      2 C          -2.4686    0.3117   -1.9455 C.2     1  UNL1        0.0000
      3 N          -2.8712   -1.4117   -0.3434 N.am    1  UNL1        0.0000
      4 C          -3.4783   -1.5106    1.3016 C.3     1  UNL1        0.0000
      5 C          -1.7029   -2.9963    0.1686 C.3     1  UNL1        0.0000
      6 C          -0.1886   -3.8297   -0.3666 C.3     1  UNL1        0.0000
      7 C          -0.1403   -4.1520   -1.8403 C.3     1  UNL1        0.0000
      8 C          -0.1064    1.1441   -3.2842 C.ar    1  UNL1        0.0000
      9 C           0.6483    0.0361   -3.4391 C.ar    1  UNL1        0.0000
     10 C           1.7921   -0.4779   -3.7526 C.ar    1  UNL1        0.0000
     11 N           1.0146    1.9284   -2.3991 N.ar    1  UNL1        0.0000
     12 C           2.3831    1.1108   -1.7738 C.ar    1  UNL1        0.0000
     13 C           2.7563   -0.3237   -2.4945 C.ar    1  UNL1        0.0000
     14 C           2.9828   -1.6255   -1.6730 C.ar    1  UNL1        0.0000
     15 C           3.1370   -1.6307   -0.2342 C.ar    1  UNL1        0.0000
     16 C           3.1376   -0.3680    0.5384 C.ar    1  UNL1        0.0000
     17 C           2.6838    0.9144   -0.1564 C.ar    1  UNL1        0.0000
     18 N           1.7872    1.5103    0.7874 N.ar    1  UNL1        0.0000
     19 C           1.2905    1.3632    2.2692 C.ar    1  UNL1        0.0000
     20 C          -0.4001    1.9987    3.0591 C.ar    1  UNL1        0.0000
     21 N          -1.4582    0.8501    3.1934 N.ar    1  UNL1        0.0000
     22 C          -2.2267    0.5944    1.9934 C.ar    1  UNL1        0.0000
     23 C          -0.8676   -0.7696   -0.2381 C.3     1  UNL1        0.0000
     24 C          -1.5205   -1.8142   -2.1069 C.3     1  UNL1        0.0000
     25 C          -0.5000   -1.1737   -1.5728 C.3     1  UNL1        0.0000
     26 C           0.2384    0.0032   -0.1732 C.3     1  UNL1        0.0000
     27 C          -0.9687    0.6982    0.0178 C.3     1  UNL1        0.0000
     28 C          -0.6774    1.4071    0.8936 C.3     1  UNL1        0.0000
     29 C           0.5238    3.3545    0.8902 C.3     1  UNL1        0.0000
     30 C          -0.1994   -0.6570    1.9929 C.3     1  UNL1        0.0000
     31 C          -2.2452    1.6755    1.3865 C.ar    1  UNL1        0.0000
     32 N          -2.4034    2.7604    2.1172 N.ar    1  UNL1        0.0000
     33 N          -1.2042    3.0910    2.2688 N.ar    1  UNL1        0.0000
     34 C           1.8941    0.2327    2.8210 C.ar    1  UNL1        0.0000
     35 C           2.7532   -0.5704    1.9704 C.ar    1  UNL1        0.0000
     36 H          -3.9746   -0.8566    2.0996 H       1  UNL1        0.0000
     37 H          -3.2202   -2.4241    2.0907 H       1  UNL1        0.0000
     38 H          -2.6762   -1.5508    2.2730 H       1  UNL1        0.0000
     39 H          -1.1292   -3.1950    1.2841 H       1  UNL1        0.0000
     40 H          -1.6172   -3.3367    1.3740 H       1  UNL1        0.0000
     41 H           0.7428   -4.0035    0.3685 H       1  UNL1        0.0000
     42 H           0.2079   -4.9239   -0.2906 H       1  UNL1        0.0000
     43 H          -1.1242   -4.0675   -2.2757 H       1  UNL1        0.0000
     44 H           0.6501   -3.6230   -2.4045 H       1  UNL1        0.0000
     45 H           0.5985   -3.6395   -2.4905 H       1  UNL1        0.0000
     46 H           0.7867   -0.0449   -2.6322 H       1  UNL1        0.0000
     47 H           1.4185   -1.4028   -4.2056 H       1  UNL1        0.0000
     48 H           2.7243   -2.7059   -2.0182 H       1  UNL1        0.0000
     49 H           2.9588   -2.6258    0.3281 H       1  UNL1        0.0000
     50 H          -2.5064   -2.3796   -2.1545 H       1  UNL1        0.0000
     51 H          -2.5059   -2.3807   -2.1543 H       1  UNL1        0.0000
     52 H          -1.7264   -1.4374   -3.2828 H       1  UNL1        0.0000
     53 H           0.5633   -1.6913   -1.7193 H       1  UNL1        0.0000
     54 H          -0.6522    0.1200   -1.8212 H       1  UNL1        0.0000
     55 H           0.5587   -1.7030   -1.6952 H       1  UNL1        0.0000
     56 H           1.0549   -0.5745   -0.1133 H       1  UNL1        0.0000
     57 H           1.0545   -0.5748   -0.1119 H       1  UNL1        0.0000
     58 H          -2.3587    0.4311   -0.0431 H       1  UNL1        0.0000
     59 H          -0.2465    1.2426    0.4242 H       1  UNL1        0.0000
     60 H           0.7503    3.8868    1.8513 H       1  UNL1        0.0000
     61 H           1.4220    3.5598    0.2015 H       1  UNL1        0.0000
     62 H           1.5314    3.5534    0.3652 H       1  UNL1        0.0000
     63 H          -0.7310   -1.3270    2.6452 H       1  UNL1        0.0000
     64 H           0.2839   -1.6100    1.4570 H       1  UNL1        0.0000
     65 H           0.2850   -1.6096    1.4573 H       1  UNL1        0.0000
     66 H           1.2398   -0.2526    3.6448 H       1  UNL1        0.0000
     67 H           3.6473   -0.5155    2.4944 H       1  UNL1        0.0000
     68 EU         -0.4133    2.6971   -0.7321 Eu      1  UNL1        0.0000
@<TRIPOS>BOND
     1     1     2    2
     2     2     3   am
     3     3     4    1
     4     3     5    1
     5     5     6    1
     6     6     7    1
     7     2     8    1
     8     8     9   ar
     9     9    10   ar
    10     8    11   ar
    11    11    12   ar
    12    12    13   ar
    13    10    13   ar
    14    13    14   ar
    15    14    15   ar
    16    15    16   ar
    17    16    17   ar
    18    12    17   ar
    19    17    18   ar
    20    18    19   ar
    21    19    20    1
    22    20    21   ar
    23    21    22   ar
    24    22    23    1
    25    23    24    1
    26    23    25    1
    27    23    26    1
    28    26    27    1
    29    27    28    1
    30    28    29    1
    31    28    30    1
    32    22    31   ar
    33    28    31    1
    34    31    32   ar
    35    32    33   ar
    36    20    33   ar
    37    19    34   ar
    38    34    35   ar
    39    16    35   ar
    40     4    36    1
    41     4    37    1
    42     4    38    1
    43     5    39    1
    44     5    40    1
    45     6    41    1
    46     6    42    1
    47     7    43    1
    48     7    44    1
    49     7    45    1
    50     9    46    1
    51    10    47    1
    52    14    48    1
    53    15    49    1
    54    24    50    1
    55    24    51    1
    56    24    52    1
    57    25    53    1
    58    25    54    1
    59    25    55    1
    60    26    56    1
    61    26    57    1
    62    27    58    1
    63    27    59    1
    64    29    60    1
    65    29    61    1
    66    29    62    1
    67    30    63    1
    68    30    64    1
    69    30    65    1
    70    34    66    1
    71    35    67    1
    72    68     1    1
    73    68    33    1
    74    68    18    1
    75    68    11    1
@<TRIPOS>MOLECULE
*****
 68 75 0 0 0
SMALL
GASTEIGER

@<TRIPOS>ATOM
      1 O          -2.8392    1.3164   -1.0582 O.2     1  UNL1        0.0000
      2 C          -2.4618    0.1847   -1.5157 C.2     1  UNL1        0.0000
      3 N          -3.0611   -1.2209   -0.5666 N.am    1  UNL1        0.0000
      4 C          -3.9689   -1.1136    0.6239 C.3     1  UNL1        0.0000
      5 C          -2.4728   -2.9344   -0.0451 C.3     1  UNL1        0.0000
      6 C          -1.0019   -3.9881   -0.3930 C.3     1  UNL1        0.0000
      7 C          -0.3895   -4.4679   -1.8425 C.3     1  UNL1        0.0000
      8 C          -0.6560    0.6531   -2.5626 C.ar    1  UNL1        0.0000
      9 C           0.0925   -0.0287   -3.6746 C.ar    1  UNL1        0.0000
     10 C           1.5694   -0.2713   -3.5951 C.ar    1  UNL1        0.0000
     11 N           0.4139    1.5783   -2.0156 N.ar    1  UNL1        0.0000
     12 C           1.8060    1.0926   -1.5868 C.ar    1  UNL1        0.0000
     13 C           2.2905    0.0352   -2.3707 C.ar    1  UNL1        0.0000
     14 C           3.1291   -1.0051   -1.7617 C.ar    1  UNL1        0.0000
     15 C           3.5043   -1.0156   -0.3692 C.ar    1  UNL1        0.0000
     16 C           3.2219    0.0838    0.4911 C.ar    1  UNL1        0.0000
     17 C           2.4672    1.1823   -0.0512 C.ar    1  UNL1        0.0000
     18 N           1.7955    1.8201    0.9449 N.ar    1  UNL1        0.0000
     19 C           1.6086    1.7450    2.4875 C.ar    1  UNL1        0.0000
     20 C          -0.2696    1.8927    3.3126 C.ar    1  UNL1        0.0000
     21 N          -1.1102    0.5373    3.3717 N.ar    1  UNL1        0.0000
     22 C          -1.8056   -0.0090    1.9845 C.ar    1  UNL1        0.0000
     23 C          -0.8722   -1.1247    0.0526 C.3     1  UNL1        0.0000
     24 C          -1.3405   -1.8944   -1.8968 C.3     1  UNL1        0.0000
     25 C           0.0037   -1.8220   -1.2392 C.3     1  UNL1        0.0000
     26 C           0.0352   -0.2800   -0.1953 C.3     1  UNL1        0.0000
     27 C          -0.3980    0.8078    0.1029 C.3     1  UNL1        0.0000
     28 C          -0.4046    1.2557    1.1120 C.3     1  UNL1        0.0000
     29 C           0.3369    3.4478    1.1469 C.3     1  UNL1        0.0000
     30 C           0.5161   -0.4836    2.2006 C.3     1  UNL1        0.0000
     31 C          -1.8961    1.1170    1.5282 C.ar    1  UNL1        0.0000
     32 N          -2.3794    2.1152    2.4714 N.ar    1  UNL1        0.0000
     33 N          -1.2940    2.7754    2.5445 N.ar    1  UNL1        0.0000
     34 C           2.5301    0.7558    2.9486 C.ar    1  UNL1        0.0000
     35 C           3.2836   -0.0815    1.9755 C.ar    1  UNL1        0.0000
     36 H          -4.3079   -0.1534    1.0291 H       1  UNL1        0.0000
     37 H          -4.3697   -2.0662    1.0706 H       1  UNL1        0.0000
     38 H          -3.3759   -1.3990    1.5100 H       1  UNL1        0.0000
     39 H          -1.9568   -2.8244    0.9574 H       1  UNL1        0.0000
     40 H          -2.7093   -3.3161    0.9715 H       1  UNL1        0.0000
     41 H          -0.0616   -3.6529    0.1763 H       1  UNL1        0.0000
     42 H          -0.9102   -4.9313    0.1761 H       1  UNL1        0.0000
     43 H          -1.2029   -4.6174   -2.5484 H       1  UNL1        0.0000
     44 H           0.6622   -4.1631   -2.1538 H       1  UNL1        0.0000
     45 H           0.1850   -3.7886   -2.5338 H       1  UNL1        0.0000
     46 H          -0.3416   -0.6968   -4.4070 H       1  UNL1        0.0000
     47 H           1.9502   -1.0872   -4.2182 H       1  UNL1        0.0000
     48 H           3.2492   -1.9754   -2.2735 H       1  UNL1        0.0000
     49 H           3.8262   -1.9880    0.0611 H       1  UNL1        0.0000
     50 H          -2.2270   -2.5566   -2.2254 H       1  UNL1        0.0000
     51 H          -2.2249   -2.5595   -2.2253 H       1  UNL1        0.0000
     52 H          -1.5296   -1.4287   -2.9122 H       1  UNL1        0.0000
     53 H           0.9662   -2.3094   -1.0603 H       1  UNL1        0.0000
     54 H           0.6342   -1.3303   -1.9633 H       1  UNL1        0.0000
     55 H           0.9500   -2.3257   -1.0191 H       1  UNL1        0.0000
     56 H           1.0434   -0.5102    0.0995 H       1  UNL1        0.0000
     57 H           1.0434   -0.5102    0.0995 H       1  UNL1        0.0000
     58 H          -0.9877    1.1211   -0.4275 H       1  UNL1        0.0000
     59 H           0.1748    1.3901   -0.0648 H       1  UNL1        0.0000
     60 H           0.6343    3.9838    2.0679 H       1  UNL1        0.0000
     61 H           0.8464    3.7316    0.1649 H       1  UNL1        0.0000
     62 H           1.2360    3.8273    0.5676 H       1  UNL1        0.0000
     63 H          -0.1010   -1.1801    2.8758 H       1  UNL1        0.0000
     64 H           0.7691   -1.5053    1.8316 H       1  UNL1        0.0000
     65 H           0.7819   -1.5023    1.8327 H       1  UNL1        0.0000
     66 H           2.3947    0.3154    3.9567 H       1  UNL1        0.0000
     67 H           3.6790   -1.0261    2.3829 H       1  UNL1        0.0000
     68 EU         -0.8840    2.8979   -0.3040 Eu      1  UNL1        0.0000
@<TRIPOS>BOND
     1     1     2    2
     2     2     3   am
     3     3     4    1
     4     3     5    1
     5     5     6    1
     6     6     7    1
     7     2     8    1
     8     8     9   ar
     9     9    10   ar
    10     8    11   ar
    11    11    12   ar
    12    12    13   ar
    13    10    13   ar
    14    13    14   ar
    15    14    15   ar
    16    15    16   ar
    17    16    17   ar
    18    12    17   ar
    19    17    18   ar
    20    18    19   ar
    21    19    20    1
    22    20    21   ar
    23    21    22   ar
    24    22    23    1
    25    23    24    1
    26    23    25    1
    27    23    26    1
    28    26    27    1
    29    27    28    1
    30    28    29    1
    31    28    30    1
    32    22    31   ar
    33    28    31    1
    34    31    32   ar
    35    32    33   ar
    36    20    33   ar
    37    19    34   ar
    38    34    35   ar
    39    16    35   ar
    40     4    36    1
    41     4    37    1
    42     4    38    1
    43     5    39    1
    44     5    40    1
    45     6    41    1
    46     6    42    1
    47     7    43    1
    48     7    44    1
    49     7    45    1
    50     9    46    1
    51    10    47    1
    52    14    48    1
    53    15    49    1
    54    24    50    1
    55    24    51    1
    56    24    52    1
    57    25    53    1
    58    25    54    1
    59    25    55    1
    60    26    56    1
    61    26    57    1
    62    27    58    1
    63    27    59    1
    64    29    60    1
    65    29    61    1
    66    29    62    1
    67    30    63    1
    68    30    64    1
    69    30    65    1
    70    34    66    1
    71    35    67    1
    72    68     1    1
    73    68    33    1
    74    68    18    1
    75    68    11    1
@<TRIPOS>MOLECULE
*****
 68 75 0 0 0
SMALL
GASTEIGER

@<TRIPOS>ATOM
      1 O          -2.7969    1.3532   -1.0015 O.2     1  UNL1        0.0000
      2 C          -2.4253    0.2933   -1.5608 C.2     1  UNL1        0.0000
      3 N          -3.0545   -1.0185   -0.6859 N.am    1  UNL1        0.0000
      4 C          -4.1351   -0.7636    0.3236 C.3     1  UNL1        0.0000
      5 C          -2.8266   -2.6863   -0.1359 C.3     1  UNL1        0.0000
      6 C          -1.6478   -4.0370   -0.3580 C.3     1  UNL1        0.0000
      7 C          -0.8615   -4.6185   -1.7220 C.3     1  UNL1        0.0000
      8 C          -0.7114    0.8113   -2.5767 C.ar    1  UNL1        0.0000
      9 C           0.0178    0.0617   -3.6039 C.ar    1  UNL1        0.0000
     10 C           1.4512   -0.1613   -3.5201 C.ar    1  UNL1        0.0000
     11 N           0.3075    1.7661   -1.9990 N.ar    1  UNL1        0.0000
     12 C           1.7483    1.3817   -1.6390 C.ar    1  UNL1        0.0000
     13 C           2.2406    0.3024   -2.4147 C.ar    1  UNL1        0.0000
     14 C           3.2837   -0.5662   -1.9009 C.ar    1  UNL1        0.0000
     15 C           3.8018   -0.4836   -0.5551 C.ar    1  UNL1        0.0000
     16 C           3.3852    0.5296    0.3660 C.ar    1  UNL1        0.0000
     17 C           2.4545    1.4970   -0.1293 C.ar    1  UNL1        0.0000
     18 N           1.7667    2.0437    0.9615 N.ar    1  UNL1        0.0000
     19 C           1.6204    1.8022    2.4983 C.ar    1  UNL1        0.0000
     20 C          -0.2428    1.4608    3.3056 C.ar    1  UNL1        0.0000
     21 N          -0.7282   -0.0421    3.2810 N.ar    1  UNL1        0.0000
     22 C          -1.4216   -0.5779    1.9192 C.ar    1  UNL1        0.0000
     23 C          -0.6008   -1.4367   -0.0144 C.3     1  UNL1        0.0000
     24 C          -1.0921   -1.8323   -1.7236 C.3     1  UNL1        0.0000
     25 C           0.4907   -2.5159   -0.7294 C.3     1  UNL1        0.0000
     26 C           0.2409   -0.4718   -0.4937 C.3     1  UNL1        0.0000
     27 C          -0.2273    0.6182    0.0130 C.3     1  UNL1        0.0000
     28 C          -0.2786    1.0404    1.1087 C.3     1  UNL1        0.0000
     29 C           0.0553    3.3447    1.4063 C.3     1  UNL1        0.0000
     30 C           0.9999   -0.4273    1.8859 C.3     1  UNL1        0.0000
     31 C          -1.7759    0.5428    1.4850 C.ar    1  UNL1        0.0000
     32 N          -2.3859    1.3718    2.4828 N.ar    1  UNL1        0.0000
     33 N          -1.4240    2.1925    2.6624 N.ar    1  UNL1        0.0000
     34 C           2.7870    1.0492    2.9020 C.ar    1  UNL1        0.0000
     35 C           3.5874    0.3771    1.8407 C.ar    1  UNL1        0.0000
     36 H          -4.4910    0.2627    0.4212 H       1  UNL1        0.0000
     37 H          -4.9857   -1.4913    0.2496 H       1  UNL1        0.0000
     38 H          -3.8086   -1.0186    1.3740 H       1  UNL1        0.0000
     39 H          -2.5045   -2.6053    0.9363 H       1  UNL1        0.0000
     40 H          -3.7223   -3.2189    0.2541 H       1  UNL1        0.0000
     41 H          -0.8263   -3.8941    0.3915 H       1  UNL1        0.0000
     42 H          -1.9080   -4.9647    0.1796 H       1  UNL1        0.0000
     43 H          -1.4841   -5.2058   -2.4027 H       1  UNL1        0.0000
     44 H           0.1241   -5.1140   -1.4879 H       1  UNL1        0.0000
     45 H          -0.3732   -3.9477   -2.4895 H       1  UNL1        0.0000
     46 H          -0.4688   -0.6252   -4.2942 H       1  UNL1        0.0000
     47 H           1.8369   -0.9609   -4.1539 H       1  UNL1        0.0000
     48 H           3.5162   -1.4923   -2.4382 H       1  UNL1        0.0000
     49 H           4.3556   -1.3581   -0.1831 H       1  UNL1        0.0000
     50 H          -1.8922   -2.5044   -2.1450 H       1  UNL1        0.0000
     51 H          -1.8882   -2.5083   -2.1452 H       1  UNL1        0.0000
     52 H          -1.3102   -1.3416   -2.6048 H       1  UNL1        0.0000
     53 H           1.4385   -2.7389   -0.2765 H       1  UNL1        0.0000
     54 H           1.0330   -2.2120   -1.7655 H       1  UNL1        0.0000
     55 H           1.2545   -2.9177   -0.1105 H       1  UNL1        0.0000
     56 H           1.3063   -0.5394   -0.2701 H       1  UNL1        0.0000
     57 H           1.3063   -0.5394   -0.2701 H       1  UNL1        0.0000
     58 H          -0.8702    0.9366   -0.4026 H       1  UNL1        0.0000
     59 H           0.2416    1.3126   -0.0722 H       1  UNL1        0.0000
     60 H           0.1018    3.8631    2.3965 H       1  UNL1        0.0000
     61 H           0.3352    3.9587    0.4786 H       1  UNL1        0.0000
     62 H           0.9809    3.9634    1.1416 H       1  UNL1        0.0000
     63 H           1.2090   -0.6141    2.9926 H       1  UNL1        0.0000
     64 H           0.7544   -1.5127    1.7933 H       1  UNL1        0.0000
     65 H           1.0329   -1.5105    1.6498 H       1  UNL1        0.0000
     66 H           2.7992    0.6092    3.9075 H       1  UNL1        0.0000
     67 H           4.1574   -0.4860    2.2058 H       1  UNL1        0.0000
     68 EU         -0.9923    2.7363   -0.1453 Eu      1  UNL1        0.0000
@<TRIPOS>BOND
     1     1     2    2
     2     2     3   am
     3     3     4    1
     4     3     5    1
     5     5     6    1
     6     6     7    1
     7     2     8    1
     8     8     9   ar
     9     9    10   ar
    10     8    11   ar
    11    11    12   ar
    12    12    13   ar
    13    10    13   ar
    14    13    14   ar
    15    14    15   ar
    16    15    16   ar
    17    16    17   ar
    18    12    17   ar
    19    17    18   ar
    20    18    19   ar
    21    19    20    1
    22    20    21   ar
    23    21    22   ar
    24    22    23    1
    25    23    24    1
    26    23    25    1
    27    23    26    1
    28    26    27    1
    29    27    28    1
    30    28    29    1
    31    28    30    1
    32    22    31   ar
    33    28    31    1
    34    31    32   ar
    35    32    33   ar
    36    20    33   ar
    37    19    34   ar
    38    34    35   ar
    39    16    35   ar
    40     4    36    1
    41     4    37    1
    42     4    38    1
    43     5    39    1
    44     5    40    1
    45     6    41    1
    46     6    42    1
    47     7    43    1
    48     7    44    1
    49     7    45    1
    50     9    46    1
    51    10    47    1
    52    14    48    1
    53    15    49    1
    54    24    50    1
    55    24    51    1
    56    24    52    1
    57    25    53    1
    58    25    54    1
    59    25    55    1
    60    26    56    1
    61    26    57    1
    62    27    58    1
    63    27    59    1
    64    29    60    1
    65    29    61    1
    66    29    62    1
    67    30    63    1
    68    30    64    1
    69    30    65    1
    70    34    66    1
    71    35    67    1
    72    68     1    1
    73    68    33    1
    74    68    18    1
    75    68    11    1
@<TRIPOS>MOLECULE
*****
 68 75 0 0 0
SMALL
GASTEIGER

@<TRIPOS>ATOM
      1 O          -2.7954    1.4830   -1.2781 O.2     1  UNL1        0.0000
      2 C          -2.4045    0.4524   -1.8598 C.2     1  UNL1        0.0000
      3 N          -3.0444   -0.8109   -1.0574 N.am    1  UNL1        0.0000
      4 C          -4.1704   -0.4038   -0.1309 C.3     1  UNL1        0.0000
      5 C          -3.0860   -2.4247   -0.5072 C.3     1  UNL1        0.0000
      6 C          -2.1804   -3.9366   -0.3872 C.3     1  UNL1        0.0000
      7 C          -1.3484   -4.7902   -1.5064 C.3     1  UNL1        0.0000
      8 C          -0.7483    0.9184   -2.5965 C.ar    1  UNL1        0.0000
      9 C          -0.0360    0.2004   -3.6160 C.ar    1  UNL1        0.0000
     10 C           1.4016    0.0443   -3.5455 C.ar    1  UNL1        0.0000
     11 N           0.1818    1.7688   -1.8545 N.ar    1  UNL1        0.0000
     12 C           1.6216    1.5332   -1.6166 C.ar    1  UNL1        0.0000
     13 C           2.1966    0.5792   -2.4742 C.ar    1  UNL1        0.0000
     14 C           3.3938   -0.1105   -2.0666 C.ar    1  UNL1        0.0000
     15 C           3.9859    0.0541   -0.7659 C.ar    1  UNL1        0.0000
     16 C           3.4583    0.9532    0.2006 C.ar    1  UNL1        0.0000
     17 C           2.3438    1.7068   -0.1888 C.ar    1  UNL1        0.0000
     18 N           1.6378    2.1258    0.9211 N.ar    1  UNL1        0.0000
     19 C           1.6861    1.8418    2.4497 C.ar    1  UNL1        0.0000
     20 C           0.0542    1.1237    3.4262 C.ar    1  UNL1        0.0000
     21 N          -0.2197   -0.4545    3.3551 N.ar    1  UNL1        0.0000
     22 C          -1.0021   -1.0907    2.1296 C.ar    1  UNL1        0.0000
     23 C          -0.3449   -1.8776    0.3274 C.3     1  UNL1        0.0000
     24 C          -0.7524   -1.9388   -1.4069 C.3     1  UNL1        0.0000
     25 C           0.7792   -3.0361    0.2028 C.3     1  UNL1        0.0000
     26 C           0.3132   -0.8605   -0.4736 C.3     1  UNL1        0.0000
     27 C          -0.2532    0.2654    0.0006 C.3     1  UNL1        0.0000
     28 C          -0.1751    0.7323    1.1545 C.3     1  UNL1        0.0000
     29 C          -0.2307    3.1087    1.6293 C.3     1  UNL1        0.0000
     30 C           1.3852   -0.4284    1.7019 C.3     1  UNL1        0.0000
     31 C          -1.5388    0.0141    1.7264 C.ar    1  UNL1        0.0000
     32 N          -2.1142    0.7029    2.7881 N.ar    1  UNL1        0.0000
     33 N          -1.2627    1.6556    2.9071 N.ar    1  UNL1        0.0000
     34 C           3.0007    1.3802    2.7524 C.ar    1  UNL1        0.0000
     35 C           3.8291    0.8829    1.6364 C.ar    1  UNL1        0.0000
     36 H          -4.4799    0.6454   -0.1118 H       1  UNL1        0.0000
     37 H          -5.1002   -1.0014   -0.2888 H       1  UNL1        0.0000
     38 H          -3.9342   -0.5815    0.9582 H       1  UNL1        0.0000
     39 H          -3.0524   -2.3794    0.6237 H       1  UNL1        0.0000
     40 H          -4.0807   -2.8625   -0.7142 H       1  UNL1        0.0000
     41 H          -1.4656   -3.8818    0.4430 H       1  UNL1        0.0000
     42 H          -2.7839   -4.7195    0.1093 H       1  UNL1        0.0000
     43 H          -1.9939   -5.2943   -2.2384 H       1  UNL1        0.0000
     44 H          -0.6557   -5.5277   -1.0331 H       1  UNL1        0.0000
     45 H          -0.5525   -4.3202   -2.1452 H       1  UNL1        0.0000
     46 H          -0.5559   -0.4819   -4.2796 H       1  UNL1        0.0000
     47 H           1.8247   -0.7331   -4.1792 H       1  UNL1        0.0000
     48 H           3.7481   -0.9625   -2.6512 H       1  UNL1        0.0000
     49 H           4.7362   -0.6796   -0.4573 H       1  UNL1        0.0000
     50 H          -1.4420   -2.5039   -2.0570 H       1  UNL1        0.0000
     51 H          -1.4412   -2.5045   -2.0570 H       1  UNL1        0.0000
     52 H          -0.8427   -1.2873   -2.2241 H       1  UNL1        0.0000
     53 H           1.8473   -2.7486    0.2659 H       1  UNL1        0.0000
     54 H           0.9707   -3.3389   -0.8729 H       1  UNL1        0.0000
     55 H           0.6524   -3.9238    0.8016 H       1  UNL1        0.0000
     56 H           1.3992   -0.8206   -0.6245 H       1  UNL1        0.0000
     57 H           1.3992   -0.8206   -0.6245 H       1  UNL1        0.0000
     58 H          -1.0938    0.4312   -0.2998 H       1  UNL1        0.0000
     59 H           0.2949    0.9022   -0.0542 H       1  UNL1        0.0000
     60 H          -0.4134    3.5762    2.6368 H       1  UNL1        0.0000
     61 H          -0.4919    3.9223    0.8572 H       1  UNL1        0.0000
     62 H           0.6487    3.8466    1.6020 H       1  UNL1        0.0000
     63 H           1.7873   -0.4973    2.7355 H       1  UNL1        0.0000
     64 H           1.1855   -1.4718    1.9710 H       1  UNL1        0.0000
     65 H           2.1733   -0.9458    1.2010 H       1  UNL1        0.0000
     66 H           3.2115    0.9933    3.7526 H       1  UNL1        0.0000
     67 H           4.6153    0.1917    1.9392 H       1  UNL1        0.0000
     68 EU         -1.0764    2.3082    0.0372 Eu      1  UNL1        0.0000
@<TRIPOS>BOND
     1     1     2    2
     2     2     3   am
     3     3     4    1
     4     3     5    1
     5     5     6    1
     6     6     7    1
     7     2     8    1
     8     8     9   ar
     9     9    10   ar
    10     8    11   ar
    11    11    12   ar
    12    12    13   ar
    13    10    13   ar
    14    13    14   ar
    15    14    15   ar
    16    15    16   ar
    17    16    17   ar
    18    12    17   ar
    19    17    18   ar
    20    18    19   ar
    21    19    20    1
    22    20    21   ar
    23    21    22   ar
    24    22    23    1
    25    23    24    1
    26    23    25    1
    27    23    26    1
    28    26    27    1
    29    27    28    1
    30    28    29    1
    31    28    30    1
    32    22    31   ar
    33    28    31    1
    34    31    32   ar
    35    32    33   ar
    36    20    33   ar
    37    19    34   ar
    38    34    35   ar
    39    16    35   ar
    40     4    36    1
    41     4    37    1
    42     4    38    1
    43     5    39    1
    44     5    40    1
    45     6    41    1
    46     6    42    1
    47     7    43    1
    48     7    44    1
    49     7    45    1
    50     9    46    1
    51    10    47    1
    52    14    48    1
    53    15    49    1
    54    24    50    1
    55    24    51    1
    56    24    52    1
    57    25    53    1
    58    25    54    1
    59    25    55    1
    60    26    56    1
    61    26    57    1
    62    27    58    1
    63    27    59    1
    64    29    60    1
    65    29    61    1
    66    29    62    1
    67    30    63    1
    68    30    64    1
    69    30    65    1
    70    34    66    1
    71    35    67    1
    72    68     1    1
    73    68    33    1
    74    68    18    1
    75    68    11    1
@<TRIPOS>MOLECULE
*****
 68 75 0 0 0
SMALL
GASTEIGER

@<TRIPOS>ATOM
      1 O          -2.6978    1.5874   -1.2267 O.2     1  UNL1        0.0000
      2 C          -2.3440    0.6412   -1.9298 C.2     1  UNL1        0.0000
      3 N          -3.1127   -0.5982   -1.3637 N.am    1  UNL1        0.0000
      4 C          -4.2628   -0.1895   -0.4721 C.3     1  UNL1        0.0000
      5 C          -3.2228   -2.2337   -1.0552 C.3     1  UNL1        0.0000
      6 C          -2.5917   -3.7803   -0.5590 C.3     1  UNL1        0.0000
      7 C          -1.8467   -4.9279   -1.4198 C.3     1  UNL1        0.0000
      8 C          -0.7328    0.9695   -2.5392 C.ar    1  UNL1        0.0000
      9 C          -0.0324    0.2251   -3.5221 C.ar    1  UNL1        0.0000
     10 C           1.4116    0.1824   -3.5255 C.ar    1  UNL1        0.0000
     11 N           0.1664    1.7732   -1.7485 N.ar    1  UNL1        0.0000
     12 C           1.5762    1.6739   -1.5698 C.ar    1  UNL1        0.0000
     13 C           2.2095    0.7937   -2.4830 C.ar    1  UNL1        0.0000
     14 C           3.5106    0.3031   -2.1814 C.ar    1  UNL1        0.0000
     15 C           4.1763    0.5911   -0.9353 C.ar    1  UNL1        0.0000
     16 C           3.5644    1.3790    0.0896 C.ar    1  UNL1        0.0000
     17 C           2.3104    1.9014   -0.2047 C.ar    1  UNL1        0.0000
     18 N           1.5744    2.1300    0.9474 N.ar    1  UNL1        0.0000
     19 C           1.7668    1.8999    2.4627 C.ar    1  UNL1        0.0000
     20 C           0.3128    0.9909    3.5240 C.ar    1  UNL1        0.0000
     21 N           0.2160   -0.5836    3.4575 N.ar    1  UNL1        0.0000
     22 C          -0.6177   -1.2925    2.3306 C.ar    1  UNL1        0.0000
     23 C          -0.2028   -2.1620    0.6121 C.3     1  UNL1        0.0000
     24 C          -0.6888   -2.0995   -1.1072 C.3     1  UNL1        0.0000
     25 C           0.7255   -3.4033    0.6409 C.3     1  UNL1        0.0000
     26 C           0.4498   -1.2226   -0.3120 C.3     1  UNL1        0.0000
     27 C          -0.1710    0.0425    0.0419 C.3     1  UNL1        0.0000
     28 C          -0.0757    0.5964    1.2613 C.3     1  UNL1        0.0000
     29 C          -0.3842    2.9304    1.7532 C.3     1  UNL1        0.0000
     30 C           1.6312   -0.3531    1.6263 C.3     1  UNL1        0.0000
     31 C          -1.3154   -0.2706    1.9596 C.ar    1  UNL1        0.0000
     32 N          -1.8919    0.3752    3.0286 N.ar    1  UNL1        0.0000
     33 N          -1.0856    1.3588    3.1264 N.ar    1  UNL1        0.0000
     34 C           3.1411    1.6331    2.6663 C.ar    1  UNL1        0.0000
     35 C           4.0139    1.3497    1.4984 C.ar    1  UNL1        0.0000
     36 H          -4.5916    0.8602   -0.5039 H       1  UNL1        0.0000
     37 H          -5.1876   -0.7645   -0.6831 H       1  UNL1        0.0000
     38 H          -4.0019   -0.3314    0.6126 H       1  UNL1        0.0000
     39 H          -3.3838   -2.2165    0.0657 H       1  UNL1        0.0000
     40 H          -4.1692   -2.5753   -1.4954 H       1  UNL1        0.0000
     41 H          -1.9442   -3.7181    0.3457 H       1  UNL1        0.0000
     42 H          -3.4148   -4.3707   -0.1015 H       1  UNL1        0.0000
     43 H          -2.4741   -5.3085   -2.2348 H       1  UNL1        0.0000
     44 H          -1.5163   -5.7588   -0.7526 H       1  UNL1        0.0000
     45 H          -0.8380   -4.8136   -1.8909 H       1  UNL1        0.0000
     46 H          -0.5798   -0.4367   -4.1952 H       1  UNL1        0.0000
     47 H           1.8680   -0.5348   -4.2042 H       1  UNL1        0.0000
     48 H           3.9494   -0.4680   -2.8164 H       1  UNL1        0.0000
     49 H           5.0734    0.0141   -0.7079 H       1  UNL1        0.0000
     50 H          -0.7968   -2.8486   -1.8879 H       1  UNL1        0.0000
     51 H          -0.7876   -2.8503   -1.8876 H       1  UNL1        0.0000
     52 H          -1.0392   -1.3132   -1.8465 H       1  UNL1        0.0000
     53 H           1.7877   -3.1678    0.8452 H       1  UNL1        0.0000
     54 H           0.8378   -3.8418   -0.3808 H       1  UNL1        0.0000
     55 H           0.3468   -4.1812    1.3082 H       1  UNL1        0.0000
     56 H           1.5360   -1.2586   -0.6219 H       1  UNL1        0.0000
     57 H           1.5360   -1.2586   -0.6219 H       1  UNL1        0.0000
     58 H          -1.1712    0.0680   -0.2108 H       1  UNL1        0.0000
     59 H           0.5008    0.5379   -0.1784 H       1  UNL1        0.0000
     60 H          -0.2606    3.3379    2.7792 H       1  UNL1        0.0000
     61 H          -1.3495    3.4175    1.4790 H       1  UNL1        0.0000
     62 H           0.2373    3.7446    1.2744 H       1  UNL1        0.0000
     63 H           2.1608   -0.4207    2.6000 H       1  UNL1        0.0000
     64 H           1.6241   -1.4234    1.8114 H       1  UNL1        0.0000
     65 H           2.4551   -0.3867    0.9668 H       1  UNL1        0.0000
     66 H           3.4737    1.2919    3.6401 H       1  UNL1        0.0000
     67 H           4.9458    0.8413    1.7371 H       1  UNL1        0.0000
     68 EU         -1.0254    2.0522    0.1223 Eu      1  UNL1        0.0000
@<TRIPOS>BOND
     1     1     2    2
     2     2     3   am
     3     3     4    1
     4     3     5    1
     5     5     6    1
     6     6     7    1
     7     2     8    1
     8     8     9   ar
     9     9    10   ar
    10     8    11   ar
    11    11    12   ar
    12    12    13   ar
    13    10    13   ar
    14    13    14   ar
    15    14    15   ar
    16    15    16   ar
    17    16    17   ar
    18    12    17   ar
    19    17    18   ar
    20    18    19   ar
    21    19    20    1
    22    20    21   ar
    23    21    22   ar
    24    22    23    1
    25    23    24    1
    26    23    25    1
    27    23    26    1
    28    26    27    1
    29    27    28    1
    30    28    29    1
    31    28    30    1
    32    22    31   ar
    33    28    31    1
    34    31    32   ar
    35    32    33   ar
    36    20    33   ar
    37    19    34   ar
    38    34    35   ar
    39    16    35   ar
    40     4    36    1
    41     4    37    1
    42     4    38    1
    43     5    39    1
    44     5    40    1
    45     6    41    1
    46     6    42    1
    47     7    43    1
    48     7    44    1
    49     7    45    1
    50     9    46    1
    51    10    47    1
    52    14    48    1
    53    15    49    1
    54    24    50    1
    55    24    51    1
    56    24    52    1
    57    25    53    1
    58    25    54    1
    59    25    55    1
    60    26    56    1
    61    26    57    1
    62    27    58    1
    63    27    59    1
    64    29    60    1
    65    29    61    1
    66    29    62    1
    67    30    63    1
    68    30    64    1
    69    30    65    1
    70    34    66    1
    71    35    67    1
    72    68     1    1
    73    68    33    1
    74    68    18    1
    75    68    11    1
@<TRIPOS>MOLECULE
*****
 68 75 0 0 0
SMALL
GASTEIGER

@<TRIPOS>ATOM
      1 O          -2.6356    1.4403   -0.9372 O.2     1  UNL1        0.0000
      2 C          -2.3307    0.6218   -1.7995 C.2     1  UNL1        0.0000
      3 N          -3.2634   -0.5440   -1.5397 N.am    1  UNL1        0.0000
      4 C          -4.4706   -0.1048   -0.7455 C.3     1  UNL1        0.0000
      5 C          -3.4248   -2.1452   -1.5423 C.3     1  UNL1        0.0000
      6 C          -3.0678   -3.6470   -0.8097 C.3     1  UNL1        0.0000
      7 C          -2.3482   -4.8379   -1.5617 C.3     1  UNL1        0.0000
      8 C          -0.7598    0.9686   -2.4134 C.ar    1  UNL1        0.0000
      9 C          -0.0456    0.2719   -3.4108 C.ar    1  UNL1        0.0000
     10 C           1.4071    0.3446   -3.4647 C.ar    1  UNL1        0.0000
     11 N           0.1034    1.7900   -1.6243 N.ar    1  UNL1        0.0000
     12 C           1.5305    1.8113   -1.5100 C.ar    1  UNL1        0.0000
     13 C           2.1980    1.0304   -2.4730 C.ar    1  UNL1        0.0000
     14 C           3.5780    0.7189   -2.2649 C.ar    1  UNL1        0.0000
     15 C           4.2768    1.0765   -1.0603 C.ar    1  UNL1        0.0000
     16 C           3.6191    1.7283    0.0178 C.ar    1  UNL1        0.0000
     17 C           2.2896    2.0742   -0.1939 C.ar    1  UNL1        0.0000
     18 N           1.5990    2.1985    0.9737 N.ar    1  UNL1        0.0000
     19 C           1.8754    1.9662    2.4363 C.ar    1  UNL1        0.0000
     20 C           0.6277    0.9619    3.5483 C.ar    1  UNL1        0.0000
     21 N           0.6529   -0.5879    3.4753 N.ar    1  UNL1        0.0000
     22 C          -0.2753   -1.3700    2.5077 C.ar    1  UNL1        0.0000
     23 C           0.0420   -2.3437    0.9266 C.3     1  UNL1        0.0000
     24 C          -0.7175   -2.6607   -0.5529 C.3     1  UNL1        0.0000
     25 C           0.8152   -3.6516    1.0960 C.3     1  UNL1        0.0000
     26 C           0.6042   -1.4982   -0.1267 C.3     1  UNL1        0.0000
     27 C          -0.0347   -0.1806    0.0359 C.3     1  UNL1        0.0000
     28 C           0.0949    0.4926    1.3040 C.3     1  UNL1        0.0000
     29 C          -0.4000    2.7848    1.8046 C.3     1  UNL1        0.0000
     30 C           1.8664   -0.2542    1.5005 C.3     1  UNL1        0.0000
     31 C          -1.0363   -0.4135    2.1327 C.ar    1  UNL1        0.0000
     32 N          -1.5565    0.2120    3.2388 N.ar    1  UNL1        0.0000
     33 N          -0.7751    1.2240    3.2556 N.ar    1  UNL1        0.0000
     34 C           3.2914    1.8540    2.6007 C.ar    1  UNL1        0.0000
     35 C           4.1335    1.7184    1.3994 C.ar    1  UNL1        0.0000
     36 H          -4.7697    0.9553   -0.8479 H       1  UNL1        0.0000
     37 H          -5.3814   -0.6826   -0.9965 H       1  UNL1        0.0000
     38 H          -4.2479   -0.2527    0.3474 H       1  UNL1        0.0000
     39 H          -3.8414   -2.1934   -0.5011 H       1  UNL1        0.0000
     40 H          -4.2629   -2.4014   -2.2038 H       1  UNL1        0.0000
     41 H          -2.5821   -3.6105    0.2169 H       1  UNL1        0.0000
     42 H          -3.9917   -4.1772   -0.4611 H       1  UNL1        0.0000
     43 H          -2.9571   -5.2342   -2.3836 H       1  UNL1        0.0000
     44 H          -2.1634   -5.6687   -0.8295 H       1  UNL1        0.0000
     45 H          -1.3454   -4.7225   -1.9980 H       1  UNL1        0.0000
     46 H          -0.5571   -0.4343   -4.0620 H       1  UNL1        0.0000
     47 H           1.9033   -0.3115   -4.1668 H       1  UNL1        0.0000
     48 H           4.0783    0.0271   -2.9424 H       1  UNL1        0.0000
     49 H           5.2631    0.6398   -0.8919 H       1  UNL1        0.0000
     50 H          -0.1417   -3.1812   -1.4010 H       1  UNL1        0.0000
     51 H          -0.1363   -3.1780   -1.4011 H       1  UNL1        0.0000
     52 H          -1.2323   -1.8928   -1.2313 H       1  UNL1        0.0000
     53 H           1.8346   -3.4618    1.4475 H       1  UNL1        0.0000
     54 H           0.9846   -4.2008    0.1342 H       1  UNL1        0.0000
     55 H           0.2276   -4.3356    1.7240 H       1  UNL1        0.0000
     56 H           1.6624   -1.6484   -0.4899 H       1  UNL1        0.0000
     57 H           1.6624   -1.6484   -0.4899 H       1  UNL1        0.0000
     58 H          -1.0787   -0.2070   -0.1688 H       1  UNL1        0.0000
     59 H           0.6447    0.1212   -0.5524 H       1  UNL1        0.0000
     60 H          -0.1060    3.2823    2.7958 H       1  UNL1        0.0000
     61 H          -1.4963    3.0216    1.8131 H       1  UNL1        0.0000
     62 H          -0.0561    3.6198    1.1138 H       1  UNL1        0.0000
     63 H           2.5018   -0.2817    2.4091 H       1  UNL1        0.0000
     64 H           2.0018   -1.3319    1.6779 H       1  UNL1        0.0000
     65 H           2.5684   -0.1679    0.7024 H       1  UNL1        0.0000
     66 H           3.6951    1.5563    3.5631 H       1  UNL1        0.0000
     67 H           5.1373    1.3496    1.5842 H       1  UNL1        0.0000
     68 EU         -0.9511    1.8548    0.2142 Eu      1  UNL1        0.0000
@<TRIPOS>BOND
     1     1     2    2
     2     2     3   am
     3     3     4    1
     4     3     5    1
     5     5     6    1
     6     6     7    1
     7     2     8    1
     8     8     9   ar
     9     9    10   ar
    10     8    11   ar
    11    11    12   ar
    12    12    13   ar
    13    10    13   ar
    14    13    14   ar
    15    14    15   ar
    16    15    16   ar
    17    16    17   ar
    18    12    17   ar
    19    17    18   ar
    20    18    19   ar
    21    19    20    1
    22    20    21   ar
    23    21    22   ar
    24    22    23    1
    25    23    24    1
    26    23    25    1
    27    23    26    1
    28    26    27    1
    29    27    28    1
    30    28    29    1
    31    28    30    1
    32    22    31   ar
    33    28    31    1
    34    31    32   ar
    35    32    33   ar
    36    20    33   ar
    37    19    34   ar
    38    34    35   ar
    39    16    35   ar
    40     4    36    1
    41     4    37    1
    42     4    38    1
    43     5    39    1
    44     5    40    1
    45     6    41    1
    46     6    42    1
    47     7    43    1
    48     7    44    1
    49     7    45    1
    50     9    46    1
    51    10    47    1
    52    14    48    1
    53    15    49    1
    54    24    50    1
    55    24    51    1
    56    24    52    1
    57    25    53    1
    58    25    54    1
    59    25    55    1
    60    26    56    1
    61    26    57    1
    62    27    58    1
    63    27    59    1
    64    29    60    1
    65    29    61    1
    66    29    62    1
    67    30    63    1
    68    30    64    1
    69    30    65    1
    70    34    66    1
    71    35    67    1
    72    68     1    1
    73    68    33    1
    74    68    18    1
    75    68    11    1
@<TRIPOS>MOLECULE
*****
 68 75 0 0 0
SMALL
GASTEIGER

@<TRIPOS>ATOM
      1 O          -2.6128    1.1909   -0.6934 O.2     1  UNL1        0.0000
      2 C          -2.3727    0.6015   -1.7420 C.2     1  UNL1        0.0000
      3 N          -3.3867   -0.4628   -1.7601 N.am    1  UNL1        0.0000
      4 C          -4.6399   -0.0638   -0.9972 C.3     1  UNL1        0.0000
      5 C          -3.3124   -2.0032   -2.0148 C.3     1  UNL1        0.0000
      6 C          -3.4018   -3.4567   -1.1410 C.3     1  UNL1        0.0000
      7 C          -2.6773   -4.6726   -1.7839 C.3     1  UNL1        0.0000
      8 C          -0.8079    0.9751   -2.3366 C.ar    1  UNL1        0.0000
      9 C          -0.0934    0.3795   -3.4036 C.ar    1  UNL1        0.0000
     10 C           1.3588    0.5151   -3.4772 C.ar    1  UNL1        0.0000
     11 N           0.0607    1.7239   -1.5013 N.ar    1  UNL1        0.0000
     12 C           1.4715    1.8322   -1.4395 C.ar    1  UNL1        0.0000
     13 C           2.1514    1.1930   -2.4692 C.ar    1  UNL1        0.0000
     14 C           3.5671    1.0296   -2.3455 C.ar    1  UNL1        0.0000
     15 C           4.2910    1.4199   -1.1629 C.ar    1  UNL1        0.0000
     16 C           3.6172    1.9394   -0.0300 C.ar    1  UNL1        0.0000
     17 C           2.2558    2.1478   -0.1769 C.ar    1  UNL1        0.0000
     18 N           1.5963    2.1779    0.9954 N.ar    1  UNL1        0.0000
     19 C           1.9656    1.9466    2.4347 C.ar    1  UNL1        0.0000
     20 C           0.8408    0.8869    3.5392 C.ar    1  UNL1        0.0000
     21 N           1.0125   -0.6385    3.4849 N.ar    1  UNL1        0.0000
     22 C           0.0871   -1.5041    2.6447 C.ar    1  UNL1        0.0000
     23 C           0.2978   -2.5394    1.2389 C.3     1  UNL1        0.0000
     24 C          -0.8603   -3.1734    0.3622 C.3     1  UNL1        0.0000
     25 C           1.1245   -3.7734    1.5316 C.3     1  UNL1        0.0000
     26 C           0.7099   -1.8417   -0.0732 C.3     1  UNL1        0.0000
     27 C           0.0693   -0.4586   -0.0419 C.3     1  UNL1        0.0000
     28 C           0.2267    0.3466    1.2850 C.3     1  UNL1        0.0000
     29 C          -0.4008    2.6378    1.8688 C.3     1  UNL1        0.0000
     30 C           1.9851   -0.2444    1.3209 C.3     1  UNL1        0.0000
     31 C          -0.7964   -0.6259    2.2138 C.ar    1  UNL1        0.0000
     32 N          -1.3167   -0.0040    3.3208 N.ar    1  UNL1        0.0000
     33 N          -0.6132    1.0335    3.3045 N.ar    1  UNL1        0.0000
     34 C           3.3819    1.9766    2.5434 C.ar    1  UNL1        0.0000
     35 C           4.1913    1.9618    1.3186 C.ar    1  UNL1        0.0000
     36 H          -4.9182    0.9976   -1.1606 H       1  UNL1        0.0000
     37 H          -5.5309   -0.6722   -1.2569 H       1  UNL1        0.0000
     38 H          -4.4569   -0.2051    0.1026 H       1  UNL1        0.0000
     39 H          -4.0597   -2.1298   -1.2570 H       1  UNL1        0.0000
     40 H          -3.9196   -2.2148   -2.9110 H       1  UNL1        0.0000
     41 H          -3.1307   -3.4487   -0.0524 H       1  UNL1        0.0000
     42 H          -4.4166   -3.9538   -0.9278 H       1  UNL1        0.0000
     43 H          -3.2745   -5.0889   -2.6137 H       1  UNL1        0.0000
     44 H          -2.5530   -5.4938   -1.0265 H       1  UNL1        0.0000
     45 H          -1.6756   -4.4610   -2.1951 H       1  UNL1        0.0000
     46 H          -0.5956   -0.2887   -4.0913 H       1  UNL1        0.0000
     47 H           1.8755   -0.0630   -4.2362 H       1  UNL1        0.0000
     48 H           4.1039    0.4584   -3.0960 H       1  UNL1        0.0000
     49 H           5.3311    1.1206   -1.0723 H       1  UNL1        0.0000
     50 H          -0.4611   -3.7386   -0.5608 H       1  UNL1        0.0000
     51 H          -0.4618   -3.7350   -0.5636 H       1  UNL1        0.0000
     52 H          -1.4969   -2.3965   -0.1180 H       1  UNL1        0.0000
     53 H           2.0732   -3.5084    2.0065 H       1  UNL1        0.0000
     54 H           1.3664   -4.3367    0.5928 H       1  UNL1        0.0000
     55 H           0.4914   -4.4350    2.1569 H       1  UNL1        0.0000
     56 H           1.7864   -1.9319   -0.3765 H       1  UNL1        0.0000
     57 H           1.7864   -1.9319   -0.3765 H       1  UNL1        0.0000
     58 H          -0.9836   -0.4942   -0.2338 H       1  UNL1        0.0000
     59 H           0.6455   -0.2141   -0.8799 H       1  UNL1        0.0000
     60 H          -0.0851    3.1635    2.8158 H       1  UNL1        0.0000
     61 H          -1.5147    2.7951    1.9144 H       1  UNL1        0.0000
     62 H          -0.1676    3.4725    1.1200 H       1  UNL1        0.0000
     63 H           2.7121   -0.1842    2.1560 H       1  UNL1        0.0000
     64 H           2.2444   -1.2809    1.5730 H       1  UNL1        0.0000
     65 H           2.5931   -0.1108    0.4358 H       1  UNL1        0.0000
     66 H           3.8501    1.7281    3.4887 H       1  UNL1        0.0000
     67 H           5.2409    1.7256    1.4502 H       1  UNL1        0.0000
     68 EU         -0.9105    1.6414    0.3188 Eu      1  UNL1        0.0000
@<TRIPOS>BOND
     1     1     2    2
     2     2     3   am
     3     3     4    1
     4     3     5    1
     5     5     6    1
     6     6     7    1
     7     2     8    1
     8     8     9   ar
     9     9    10   ar
    10     8    11   ar
    11    11    12   ar
    12    12    13   ar
    13    10    13   ar
    14    13    14   ar
    15    14    15   ar
    16    15    16   ar
    17    16    17   ar
    18    12    17   ar
    19    17    18   ar
    20    18    19   ar
    21    19    20    1
    22    20    21   ar
    23    21    22   ar
    24    22    23    1
    25    23    24    1
    26    23    25    1
    27    23    26    1
    28    26    27    1
    29    27    28    1
    30    28    29    1
    31    28    30    1
    32    22    31   ar
    33    28    31    1
    34    31    32   ar
    35    32    33   ar
    36    20    33   ar
    37    19    34   ar
    38    34    35   ar
    39    16    35   ar
    40     4    36    1
    41     4    37    1
    42     4    38    1
    43     5    39    1
    44     5    40    1
    45     6    41    1
    46     6    42    1
    47     7    43    1
    48     7    44    1
    49     7    45    1
    50     9    46    1
    51    10    47    1
    52    14    48    1
    53    15    49    1
    54    24    50    1
    55    24    51    1
    56    24    52    1
    57    25    53    1
    58    25    54    1
    59    25    55    1
    60    26    56    1
    61    26    57    1
    62    27    58    1
    63    27    59    1
    64    29    60    1
    65    29    61    1
    66    29    62    1
    67    30    63    1
    68    30    64    1
    69    30    65    1
    70    34    66    1
    71    35    67    1
    72    68     1    1
    73    68    33    1
    74    68    18    1
    75    68    11    1
@<TRIPOS>MOLECULE
*****
 68 75 0 0 0
SMALL
GASTEIGER

@<TRIPOS>ATOM
      1 O          -2.5754    0.9429   -0.6085 O.2     1  UNL1        0.0000
      2 C          -2.3673    0.5104   -1.7385 C.2     1  UNL1        0.0000
      3 N          -3.4329   -0.4509   -1.9182 N.am    1  UNL1        0.0000
      4 C          -4.6837   -0.1368   -1.1498 C.3     1  UNL1        0.0000
      5 C          -3.4255   -1.8729   -2.4340 C.3     1  UNL1        0.0000
      6 C          -3.4378   -3.1446   -1.4148 C.3     1  UNL1        0.0000
      7 C          -2.6875   -4.4051   -1.9243 C.3     1  UNL1        0.0000
      8 C          -0.8312    0.9028   -2.3127 C.ar    1  UNL1        0.0000
      9 C          -0.1387    0.4503   -3.4584 C.ar    1  UNL1        0.0000
     10 C           1.3072    0.6571   -3.5651 C.ar    1  UNL1        0.0000
     11 N           0.0492    1.5710   -1.4487 N.ar    1  UNL1        0.0000
     12 C           1.4364    1.7618   -1.4315 C.ar    1  UNL1        0.0000
     13 C           2.1098    1.2857   -2.5367 C.ar    1  UNL1        0.0000
     14 C           3.5408    1.2693   -2.4760 C.ar    1  UNL1        0.0000
     15 C           4.2737    1.6585   -1.2968 C.ar    1  UNL1        0.0000
     16 C           3.6027    2.0290   -0.1128 C.ar    1  UNL1        0.0000
     17 C           2.2274    2.1019   -0.2010 C.ar    1  UNL1        0.0000
     18 N           1.6069    2.0554    0.9715 N.ar    1  UNL1        0.0000
     19 C           2.0542    1.8703    2.3733 C.ar    1  UNL1        0.0000
     20 C           1.0898    0.8493    3.5264 C.ar    1  UNL1        0.0000
     21 N           1.3407   -0.6391    3.4950 N.ar    1  UNL1        0.0000
     22 C           0.3299   -1.5476    2.8512 C.ar    1  UNL1        0.0000
     23 C           0.3905   -2.7013    1.5861 C.3     1  UNL1        0.0000
     24 C          -0.9802   -3.3772    1.2494 C.3     1  UNL1        0.0000
     25 C           1.3512   -3.8589    1.8278 C.3     1  UNL1        0.0000
     26 C           0.5655   -2.1625    0.1021 C.3     1  UNL1        0.0000
     27 C          -0.0402   -0.7382    0.0373 C.3     1  UNL1        0.0000
     28 C           0.2491    0.1679    1.3418 C.3     1  UNL1        0.0000
     29 C          -0.4021    2.4903    1.8722 C.3     1  UNL1        0.0000
     30 C           1.9944   -0.3360    1.1509 C.3     1  UNL1        0.0000
     31 C          -0.5925   -0.7481    2.4257 C.ar    1  UNL1        0.0000
     32 N          -1.0536   -0.0779    3.5256 N.ar    1  UNL1        0.0000
     33 N          -0.3485    0.9487    3.4067 N.ar    1  UNL1        0.0000
     34 C           3.4563    2.0018    2.4471 C.ar    1  UNL1        0.0000
     35 C           4.2190    2.0932    1.2073 C.ar    1  UNL1        0.0000
     36 H          -4.9647    0.9286   -1.3308 H       1  UNL1        0.0000
     37 H          -5.5767   -0.7208   -1.4313 H       1  UNL1        0.0000
     38 H          -4.5311   -0.2478   -0.0465 H       1  UNL1        0.0000
     39 H          -4.4923   -2.0438   -2.6604 H       1  UNL1        0.0000
     40 H          -3.1774   -2.0220   -3.4874 H       1  UNL1        0.0000
     41 H          -3.1510   -2.9119   -0.3855 H       1  UNL1        0.0000
     42 H          -4.4662   -3.5579   -1.2261 H       1  UNL1        0.0000
     43 H          -3.1810   -4.8091   -2.8339 H       1  UNL1        0.0000
     44 H          -2.7152   -5.2378   -1.1725 H       1  UNL1        0.0000
     45 H          -1.6214   -4.2024   -2.1469 H       1  UNL1        0.0000
     46 H          -0.6515   -0.1471   -4.1975 H       1  UNL1        0.0000
     47 H           1.8244    0.1995   -4.4002 H       1  UNL1        0.0000
     48 H           4.0989    0.8310   -3.2909 H       1  UNL1        0.0000
     49 H           5.3437    1.4993   -1.2608 H       1  UNL1        0.0000
     50 H          -0.8955   -4.0394    0.3285 H       1  UNL1        0.0000
     51 H          -0.9012   -4.0219    0.3149 H       1  UNL1        0.0000
     52 H          -1.7080   -2.5816    0.9966 H       1  UNL1        0.0000
     53 H           2.3382   -3.4860    2.1324 H       1  UNL1        0.0000
     54 H           1.4642   -4.4610    0.8956 H       1  UNL1        0.0000
     55 H           0.9041   -4.5074    2.6063 H       1  UNL1        0.0000
     56 H           1.6096   -2.2290   -0.3091 H       1  UNL1        0.0000
     57 H           1.6096   -2.2290   -0.3091 H       1  UNL1        0.0000
     58 H          -1.1096   -0.8294   -0.1331 H       1  UNL1        0.0000
     59 H           0.4719   -0.4693   -0.8798 H       1  UNL1        0.0000
     60 H          -0.0374    3.0535    2.7734 H       1  UNL1        0.0000
     61 H          -1.5151    2.5772    1.9900 H       1  UNL1        0.0000
     62 H          -0.2336    3.2958    1.0957 H       1  UNL1        0.0000
     63 H           2.8224   -0.1760    1.8551 H       1  UNL1        0.0000
     64 H           2.3246   -1.3411    1.4187 H       1  UNL1        0.0000
     65 H           2.4678   -0.1964    0.1683 H       1  UNL1        0.0000
     66 H           3.9591    1.8238    3.3899 H       1  UNL1        0.0000
     67 H           5.2904    1.9926    1.3054 H       1  UNL1        0.0000
     68 EU         -0.8982    1.4182    0.3338 Eu      1  UNL1        0.0000
@<TRIPOS>BOND
     1     1     2    2
     2     2     3   am
     3     3     4    1
     4     3     5    1
     5     5     6    1
     6     6     7    1
     7     2     8    1
     8     8     9   ar
     9     9    10   ar
    10     8    11   ar
    11    11    12   ar
    12    12    13   ar
    13    10    13   ar
    14    13    14   ar
    15    14    15   ar
    16    15    16   ar
    17    16    17   ar
    18    12    17   ar
    19    17    18   ar
    20    18    19   ar
    21    19    20    1
    22    20    21   ar
    23    21    22   ar
    24    22    23    1
    25    23    24    1
    26    23    25    1
    27    23    26    1
    28    26    27    1
    29    27    28    1
    30    28    29    1
    31    28    30    1
    32    22    31   ar
    33    28    31    1
    34    31    32   ar
    35    32    33   ar
    36    20    33   ar
    37    19    34   ar
    38    34    35   ar
    39    16    35   ar
    40     4    36    1
    41     4    37    1
    42     4    38    1
    43     5    39    1
    44     5    40    1
    45     6    41    1
    46     6    42    1
    47     7    43    1
    48     7    44    1
    49     7    45    1
    50     9    46    1
    51    10    47    1
    52    14    48    1
    53    15    49    1
    54    24    50    1
    55    24    51    1
    56    24    52    1
    57    25    53    1
    58    25    54    1
    59    25    55    1
    60    26    56    1
    61    26    57    1
    62    27    58    1
    63    27    59    1
    64    29    60    1
    65    29    61    1
    66    29    62    1
    67    30    63    1
    68    30    64    1
    69    30    65    1
    70    34    66    1
    71    35    67    1
    72    68     1    1
    73    68    33    1
    74    68    18    1
    75    68    11    1
@<TRIPOS>MOLECULE
*****
 68 75 0 0 0
SMALL
GASTEIGER

@<TRIPOS>ATOM
      1 O          -2.5890    0.8225   -0.6280 O.2     1  UNL1        0.0000
      2 C          -2.3812    0.5016   -1.7843 C.2     1  UNL1        0.0000
      3 N          -3.4436   -0.3686   -2.1385 N.am    1  UNL1        0.0000
      4 C          -4.7051   -0.2196   -1.3587 C.3     1  UNL1        0.0000
      5 C          -3.3043   -1.7089   -2.7466 C.3     1  UNL1        0.0000
      6 C          -3.3497   -2.8483   -1.6305 C.3     1  UNL1        0.0000
      7 C          -2.7241   -4.1913   -2.0445 C.3     1  UNL1        0.0000
      8 C          -0.8524    0.8598   -2.3391 C.ar    1  UNL1        0.0000
      9 C          -0.1839    0.5092   -3.5362 C.ar    1  UNL1        0.0000
     10 C           1.2502    0.7575   -3.6659 C.ar    1  UNL1        0.0000
     11 N           0.0245    1.4417   -1.4361 N.ar    1  UNL1        0.0000
     12 C           1.3905    1.6785   -1.4503 C.ar    1  UNL1        0.0000
     13 C           2.0511    1.3292   -2.6071 C.ar    1  UNL1        0.0000
     14 C           3.4799    1.4218   -2.6039 C.ar    1  UNL1        0.0000
     15 C           4.2189    1.7985   -1.4284 C.ar    1  UNL1        0.0000
     16 C           3.5580    2.0516   -0.2061 C.ar    1  UNL1        0.0000
     17 C           2.1784    2.0222   -0.2391 C.ar    1  UNL1        0.0000
     18 N           1.5743    1.9538    0.9465 N.ar    1  UNL1        0.0000
     19 C           2.1080    1.8012    2.3144 C.ar    1  UNL1        0.0000
     20 C           1.2693    0.8050    3.5235 C.ar    1  UNL1        0.0000
     21 N           1.5513   -0.6666    3.4873 N.ar    1  UNL1        0.0000
     22 C           0.4863   -1.6048    3.0045 C.ar    1  UNL1        0.0000
     23 C           0.4061   -2.8120    1.8370 C.3     1  UNL1        0.0000
     24 C          -1.0006   -3.5157    1.7721 C.3     1  UNL1        0.0000
     25 C           1.4420   -3.9185    2.0271 C.3     1  UNL1        0.0000
     26 C           0.3627   -2.3519    0.3121 C.3     1  UNL1        0.0000
     27 C          -0.2626   -0.9175    0.2294 C.3     1  UNL1        0.0000
     28 C           0.1965    0.0454    1.4379 C.3     1  UNL1        0.0000
     29 C          -0.4316    2.3583    1.9500 C.3     1  UNL1        0.0000
     30 C           1.9033   -0.4308    1.0537 C.3     1  UNL1        0.0000
     31 C          -0.5189   -0.8416    2.6512 C.ar    1  UNL1        0.0000
     32 N          -0.8714   -0.1323    3.7264 N.ar    1  UNL1        0.0000
     33 N          -0.1651    0.8948    3.5317 N.ar    1  UNL1        0.0000
     34 C           3.5037    1.9966    2.3340 C.ar    1  UNL1        0.0000
     35 C           4.2180    2.1424    1.0816 C.ar    1  UNL1        0.0000
     36 H          -5.0999    0.8132   -1.4770 H       1  UNL1        0.0000
     37 H          -5.5035   -0.9321   -1.6457 H       1  UNL1        0.0000
     38 H          -4.5336   -0.3816   -0.2625 H       1  UNL1        0.0000
     39 H          -4.1939   -1.9181   -3.3893 H       1  UNL1        0.0000
     40 H          -2.3982   -1.7756   -3.3628 H       1  UNL1        0.0000
     41 H          -2.8079   -2.5395   -0.7145 H       1  UNL1        0.0000
     42 H          -4.4014   -3.0543   -1.3050 H       1  UNL1        0.0000
     43 H          -3.2118   -4.6229   -2.9407 H       1  UNL1        0.0000
     44 H          -2.8107   -4.9398   -1.2181 H       1  UNL1        0.0000
     45 H          -1.6393   -4.0519   -2.2349 H       1  UNL1        0.0000
     46 H          -0.7126   -0.0151   -4.3202 H       1  UNL1        0.0000
     47 H           1.7534    0.4080   -4.5583 H       1  UNL1        0.0000
     48 H           4.0416    1.1058   -3.4730 H       1  UNL1        0.0000
     49 H           5.3025    1.7500   -1.4398 H       1  UNL1        0.0000
     50 H          -1.0121   -4.3367    1.0046 H       1  UNL1        0.0000
     51 H          -1.0866   -4.1438    0.8369 H       1  UNL1        0.0000
     52 H          -1.8179   -2.7787    1.5737 H       1  UNL1        0.0000
     53 H           2.4602   -3.4974    2.1235 H       1  UNL1        0.0000
     54 H           1.4373   -4.6035    1.1460 H       1  UNL1        0.0000
     55 H           1.1830   -4.5027    2.9287 H       1  UNL1        0.0000
     56 H           1.3511   -2.4368   -0.2176 H       1  UNL1        0.0000
     57 H           1.3511   -2.4368   -0.2176 H       1  UNL1        0.0000
     58 H          -1.3507   -1.0097    0.1928 H       1  UNL1        0.0000
     59 H           0.1036   -0.6543   -0.7602 H       1  UNL1        0.0000
     60 H           0.0079    2.9527    2.7960 H       1  UNL1        0.0000
     61 H          -1.5360    2.4042    2.1403 H       1  UNL1        0.0000
     62 H          -0.3275    3.1361    1.1389 H       1  UNL1        0.0000
     63 H           2.8198   -0.1986    1.6174 H       1  UNL1        0.0000
     64 H           2.2878   -1.4194    1.3183 H       1  UNL1        0.0000
     65 H           2.2306   -0.3201    0.0037 H       1  UNL1        0.0000
     66 H           4.0521    1.8583    3.2583 H       1  UNL1        0.0000
     67 H           5.2995    2.1380    1.1366 H       1  UNL1        0.0000
     68 EU         -0.8896    1.2998    0.4206 Eu      1  UNL1        0.0000
@<TRIPOS>BOND
     1     1     2    2
     2     2     3   am
     3     3     4    1
     4     3     5    1
     5     5     6    1
     6     6     7    1
     7     2     8    1
     8     8     9   ar
     9     9    10   ar
    10     8    11   ar
    11    11    12   ar
    12    12    13   ar
    13    10    13   ar
    14    13    14   ar
    15    14    15   ar
    16    15    16   ar
    17    16    17   ar
    18    12    17   ar
    19    17    18   ar
    20    18    19   ar
    21    19    20    1
    22    20    21   ar
    23    21    22   ar
    24    22    23    1
    25    23    24    1
    26    23    25    1
    27    23    26    1
    28    26    27    1
    29    27    28    1
    30    28    29    1
    31    28    30    1
    32    22    31   ar
    33    28    31    1
    34    31    32   ar
    35    32    33   ar
    36    20    33   ar
    37    19    34   ar
    38    34    35   ar
    39    16    35   ar
    40     4    36    1
    41     4    37    1
    42     4    38    1
    43     5    39    1
    44     5    40    1
    45     6    41    1
    46     6    42    1
    47     7    43    1
    48     7    44    1
    49     7    45    1
    50     9    46    1
    51    10    47    1
    52    14    48    1
    53    15    49    1
    54    24    50    1
    55    24    51    1
    56    24    52    1
    57    25    53    1
    58    25    54    1
    59    25    55    1
    60    26    56    1
    61    26    57    1
    62    27    58    1
    63    27    59    1
    64    29    60    1
    65    29    61    1
    66    29    62    1
    67    30    63    1
    68    30    64    1
    69    30    65    1
    70    34    66    1
    71    35    67    1
    72    68     1    1
    73    68    33    1
    74    68    18    1
    75    68    11    1
@<TRIPOS>MOLECULE
*****
 68 75 0 0 0
SMALL
GASTEIGER

@<TRIPOS>ATOM
      1 O          -2.3897    0.7983   -0.5938 O.2     1  UNL1        0.0000
      2 C          -2.2726    0.5502   -1.7989 C.2     1  UNL1        0.0000
      3 N          -3.3149   -0.2696   -2.2839 N.am    1  UNL1        0.0000
      4 C          -4.6336   -0.1875   -1.5739 C.3     1  UNL1        0.0000
      5 C          -3.0652   -1.5780   -2.8878 C.3     1  UNL1        0.0000
      6 C          -3.2068   -2.6978   -1.7813 C.3     1  UNL1        0.0000
      7 C          -2.7141   -4.0859   -2.1813 C.3     1  UNL1        0.0000
      8 C          -0.8021    0.9136   -2.3906 C.ar    1  UNL1        0.0000
      9 C          -0.1945    0.6333   -3.6278 C.ar    1  UNL1        0.0000
     10 C           1.2309    0.9038   -3.7841 C.ar    1  UNL1        0.0000
     11 N           0.1126    1.4461   -1.5147 N.ar    1  UNL1        0.0000
     12 C           1.4410    1.6975   -1.5307 C.ar    1  UNL1        0.0000
     13 C           2.0576    1.4267   -2.7146 C.ar    1  UNL1        0.0000
     14 C           3.4661    1.5778   -2.7294 C.ar    1  UNL1        0.0000
     15 C           4.2107    1.9248   -1.5480 C.ar    1  UNL1        0.0000
     16 C           3.5798    2.0883   -0.3006 C.ar    1  UNL1        0.0000
     17 C           2.2119    2.0088   -0.3012 C.ar    1  UNL1        0.0000
     18 N           1.6318    1.9274    0.9098 N.ar    1  UNL1        0.0000
     19 C           2.2171    1.7383    2.2369 C.ar    1  UNL1        0.0000
     20 C           1.5616    0.7127    3.4680 C.ar    1  UNL1        0.0000
     21 N           1.7528   -0.7571    3.4190 N.ar    1  UNL1        0.0000
     22 C           0.6024   -1.6572    3.1113 C.ar    1  UNL1        0.0000
     23 C           0.3953   -2.9103    2.0026 C.3     1  UNL1        0.0000
     24 C          -0.9974   -3.6683    2.0555 C.3     1  UNL1        0.0000
     25 C           1.5043   -3.9604    2.1334 C.3     1  UNL1        0.0000
     26 C           0.1597   -2.4805    0.4884 C.3     1  UNL1        0.0000
     27 C          -0.5682   -1.0669    0.4576 C.3     1  UNL1        0.0000
     28 C          -0.0445   -0.1064    1.5822 C.3     1  UNL1        0.0000
     29 C          -0.7618    2.0881    2.0592 C.3     1  UNL1        0.0000
     30 C           1.6513   -0.4763    0.9674 C.3     1  UNL1        0.0000
     31 C          -0.4745   -0.8843    2.8987 C.ar    1  UNL1        0.0000
     32 N          -0.6062   -0.0308    3.8960 N.ar    1  UNL1        0.0000
     33 N           0.2545    0.8930    3.5585 N.ar    1  UNL1        0.0000
     34 C           3.5901    1.9627    2.2180 C.ar    1  UNL1        0.0000
     35 C           4.2606    2.1705    0.9656 C.ar    1  UNL1        0.0000
     36 H          -5.0688    0.8318   -1.6497 H       1  UNL1        0.0000
     37 H          -5.3950   -0.8951   -1.9837 H       1  UNL1        0.0000
     38 H          -4.5338   -0.4408   -0.4905 H       1  UNL1        0.0000
     39 H          -3.8172   -1.7976   -3.6803 H       1  UNL1        0.0000
     40 H          -2.0515   -1.6074   -3.3132 H       1  UNL1        0.0000
     41 H          -2.6231   -2.4163   -0.8889 H       1  UNL1        0.0000
     42 H          -4.2649   -2.8109   -1.4446 H       1  UNL1        0.0000
     43 H          -3.2848   -4.4879   -3.0413 H       1  UNL1        0.0000
     44 H          -2.8431   -4.7863   -1.3205 H       1  UNL1        0.0000
     45 H          -1.6321   -4.0428   -2.4176 H       1  UNL1        0.0000
     46 H          -0.7594    0.1596   -4.4188 H       1  UNL1        0.0000
     47 H           1.7038    0.6231   -4.7103 H       1  UNL1        0.0000
     48 H           4.0069    1.3436   -3.6306 H       1  UNL1        0.0000
     49 H           5.2878    1.9390   -1.5866 H       1  UNL1        0.0000
     50 H          -0.9453   -4.7376    2.3281 H       1  UNL1        0.0000
     51 H          -1.3378   -4.0413    1.0468 H       1  UNL1        0.0000
     52 H          -1.8794   -3.0085    2.2150 H       1  UNL1        0.0000
     53 H           2.5106   -3.4991    2.0744 H       1  UNL1        0.0000
     54 H           1.4188   -4.7228    1.3291 H       1  UNL1        0.0000
     55 H           1.4040   -4.4632    3.1171 H       1  UNL1        0.0000
     56 H           1.0794   -2.5593   -0.1542 H       1  UNL1        0.0000
     57 H           1.0794   -2.5593   -0.1542 H       1  UNL1        0.0000
     58 H          -1.6403   -1.1690    0.6011 H       1  UNL1        0.0000
     59 H          -0.3636   -0.7388   -0.5766 H       1  UNL1        0.0000
     60 H          -0.1539    2.8009    2.7533 H       1  UNL1        0.0000
     61 H          -1.7828    2.1674    2.3099 H       1  UNL1        0.0000
     62 H          -0.5481    2.9490    1.3148 H       1  UNL1        0.0000
     63 H           2.6722   -0.2379    1.3555 H       1  UNL1        0.0000
     64 H           2.1486   -1.4475    1.2012 H       1  UNL1        0.0000
     65 H           1.8405   -0.3810   -0.1190 H       1  UNL1        0.0000
     66 H           4.1564    1.8277    3.1315 H       1  UNL1        0.0000
     67 H           5.3348    2.2168    0.9920 H       1  UNL1        0.0000
     68 EU         -0.4703    1.3197    0.3194 Eu      1  UNL1        0.0000
@<TRIPOS>BOND
     1     1     2    2
     2     2     3   am
     3     3     4    1
     4     3     5    1
     5     5     6    1
     6     6     7    1
     7     2     8    1
     8     8     9   ar
     9     9    10   ar
    10     8    11   ar
    11    11    12   ar
    12    12    13   ar
    13    10    13   ar
    14    13    14   ar
    15    14    15   ar
    16    15    16   ar
    17    16    17   ar
    18    12    17   ar
    19    17    18   ar
    20    18    19   ar
    21    19    20    1
    22    20    21   ar
    23    21    22   ar
    24    22    23    1
    25    23    24    1
    26    23    25    1
    27    23    26    1
    28    26    27    1
    29    27    28    1
    30    28    29    1
    31    28    30    1
    32    22    31   ar
    33    28    31    1
    34    31    32   ar
    35    32    33   ar
    36    20    33   ar
    37    19    34   ar
    38    34    35   ar
    39    16    35   ar
    40     4    36    1
    41     4    37    1
    42     4    38    1
    43     5    39    1
    44     5    40    1
    45     6    41    1
    46     6    42    1
    47     7    43    1
    48     7    44    1
    49     7    45    1
    50     9    46    1
    51    10    47    1
    52    14    48    1
    53    15    49    1
    54    24    50    1
    55    24    51    1
    56    24    52    1
    57    25    53    1
    58    25    54    1
    59    25    55    1
    60    26    56    1
    61    26    57    1
    62    27    58    1
    63    27    59    1
    64    29    60    1
    65    29    61    1
    66    29    62    1
    67    30    63    1
    68    30    64    1
    69    30    65    1
    70    34    66    1
    71    35    67    1
    72    68     1    1
    73    68    33    1
    74    68    18    1
    75    68    11    1
@<TRIPOS>MOLECULE
*****
 68 75 0 0 0
SMALL
GASTEIGER

@<TRIPOS>ATOM
      1 O          -2.0167    1.1087   -0.5664 O.2     1  UNL1        0.0000
      2 C          -1.9175    0.7981   -1.7407 C.2     1  UNL1        0.0000
      3 N          -2.9758   -0.0144   -2.2337 N.am    1  UNL1        0.0000
      4 C          -4.2978    0.0461   -1.5376 C.3     1  UNL1        0.0000
      5 C          -2.7652   -1.3249   -2.9141 C.3     1  UNL1        0.0000
      6 C          -3.0846   -2.5529   -1.9474 C.3     1  UNL1        0.0000
      7 C          -2.6852   -3.9591   -2.3914 C.3     1  UNL1        0.0000
      8 C          -0.4934    1.1408   -2.2854 C.ar    1  UNL1        0.0000
      9 C          -0.0092    0.9353   -3.5757 C.ar    1  UNL1        0.0000
     10 C           1.3949    1.1606   -3.8292 C.ar    1  UNL1        0.0000
     11 N           0.4292    1.5859   -1.3578 N.ar    1  UNL1        0.0000
     12 C           1.7702    1.7666   -1.5519 C.ar    1  UNL1        0.0000
     13 C           2.2925    1.5961   -2.7922 C.ar    1  UNL1        0.0000
     14 C           3.6927    1.7636   -2.9290 C.ar    1  UNL1        0.0000
     15 C           4.5180    2.0195   -1.7818 C.ar    1  UNL1        0.0000
     16 C           3.9705    2.0919   -0.4811 C.ar    1  UNL1        0.0000
     17 C           2.6016    2.0104   -0.3813 C.ar    1  UNL1        0.0000
     18 N           2.0579    1.9330    0.8480 N.ar    1  UNL1        0.0000
     19 C           2.6938    1.6758    2.0325 C.ar    1  UNL1        0.0000
     20 C           1.8914    0.8512    3.0948 C.ar    1  UNL1        0.0000
     21 N           1.9459   -0.6344    3.1230 N.ar    1  UNL1        0.0000
     22 C           0.7354   -1.5027    3.1339 C.ar    1  UNL1        0.0000
     23 C           0.3806   -2.9259    2.2450 C.3     1  UNL1        0.0000
     24 C          -0.9046   -3.7298    2.6966 C.3     1  UNL1        0.0000
     25 C           1.5393   -3.9265    2.2319 C.3     1  UNL1        0.0000
     26 C          -0.1840   -2.7374    0.7696 C.3     1  UNL1        0.0000
     27 C          -1.1587   -1.5168    0.7683 C.3     1  UNL1        0.0000
     28 C          -0.6263   -0.3890    1.6268 C.3     1  UNL1        0.0000
     29 C          -1.7992    0.8522    1.9298 C.3     1  UNL1        0.0000
     30 C           0.8684   -0.3710    0.7420 C.3     1  UNL1        0.0000
     31 C          -0.3685   -0.6986    3.1220 C.ar    1  UNL1        0.0000
     32 N          -0.1629    0.4504    3.8356 N.ar    1  UNL1        0.0000
     33 N           0.6225    1.2880    3.1640 N.ar    1  UNL1        0.0000
     34 C           4.0908    1.8267    2.0007 C.ar    1  UNL1        0.0000
     35 C           4.7382    2.1089    0.7351 C.ar    1  UNL1        0.0000
     36 H          -4.7340    1.0564   -1.6673 H       1  UNL1        0.0000
     37 H          -5.0428   -0.6413   -2.0047 H       1  UNL1        0.0000
     38 H          -4.2538   -0.2184   -0.4580 H       1  UNL1        0.0000
     39 H          -3.4579   -1.3989   -3.7821 H       1  UNL1        0.0000
     40 H          -1.7182   -1.4114   -3.2570 H       1  UNL1        0.0000
     41 H          -2.5497   -2.4372   -1.0221 H       1  UNL1        0.0000
     42 H          -4.1532   -2.6016   -1.6449 H       1  UNL1        0.0000
     43 H          -3.2825   -4.3040   -3.2542 H       1  UNL1        0.0000
     44 H          -2.8739   -4.6678   -1.5432 H       1  UNL1        0.0000
     45 H          -1.5993   -4.0034   -2.6085 H       1  UNL1        0.0000
     46 H          -0.6398    0.4907   -4.3459 H       1  UNL1        0.0000
     47 H           1.7782    0.9440   -4.8201 H       1  UNL1        0.0000
     48 H           4.1547    1.5971   -3.8867 H       1  UNL1        0.0000
     49 H           5.5901    2.0565   -1.9008 H       1  UNL1        0.0000
     50 H          -0.8022   -4.3262    3.6051 H       1  UNL1        0.0000
     51 H          -1.1987   -4.5047    1.9155 H       1  UNL1        0.0000
     52 H          -1.8115   -3.0889    2.7622 H       1  UNL1        0.0000
     53 H           2.4782   -3.4298    1.9130 H       1  UNL1        0.0000
     54 H           1.3334   -4.7599    1.5186 H       1  UNL1        0.0000
     55 H           1.6684   -4.3648    3.2409 H       1  UNL1        0.0000
     56 H           0.6088   -2.7162   -0.0307 H       1  UNL1        0.0000
     57 H           0.6088   -2.7162   -0.0307 H       1  UNL1        0.0000
     58 H          -2.1806   -1.7438    1.1077 H       1  UNL1        0.0000
     59 H          -1.2083   -1.1551   -0.2738 H       1  UNL1        0.0000
     60 H          -1.4592    1.7228    2.5438 H       1  UNL1        0.0000
     61 H          -2.7059    0.5452    2.4684 H       1  UNL1        0.0000
     62 H          -2.1102    1.7447    1.3539 H       1  UNL1        0.0000
     63 H           1.9064   -0.1727    0.9194 H       1  UNL1        0.0000
     64 H           1.5637   -1.2133    0.9049 H       1  UNL1        0.0000
     65 H           0.8133   -0.3550   -0.3436 H       1  UNL1        0.0000
     66 H           4.6801    1.6450    2.8962 H       1  UNL1        0.0000
     67 H           5.8032    2.1701    0.7199 H       1  UNL1        0.0000
     68 EU         -0.1285    1.6048    0.7326 Eu      1  UNL1        0.0000
@<TRIPOS>BOND
     1     1     2    2
     2     2     3   am
     3     3     4    1
     4     3     5    1
     5     5     6    1
     6     6     7    1
     7     2     8    1
     8     8     9   ar
     9     9    10   ar
    10     8    11   ar
    11    11    12   ar
    12    12    13   ar
    13    10    13   ar
    14    13    14   ar
    15    14    15   ar
    16    15    16   ar
    17    16    17   ar
    18    12    17   ar
    19    17    18   ar
    20    18    19   ar
    21    19    20    1
    22    20    21   ar
    23    21    22   ar
    24    22    23    1
    25    23    24    1
    26    23    25    1
    27    23    26    1
    28    26    27    1
    29    27    28    1
    30    28    29    1
    31    28    30    1
    32    22    31   ar
    33    28    31    1
    34    31    32   ar
    35    32    33   ar
    36    20    33   ar
    37    19    34   ar
    38    34    35   ar
    39    16    35   ar
    40     4    36    1
    41     4    37    1
    42     4    38    1
    43     5    39    1
    44     5    40    1
    45     6    41    1
    46     6    42    1
    47     7    43    1
    48     7    44    1
    49     7    45    1
    50     9    46    1
    51    10    47    1
    52    14    48    1
    53    15    49    1
    54    24    50    1
    55    24    51    1
    56    24    52    1
    57    25    53    1
    58    25    54    1
    59    25    55    1
    60    26    56    1
    61    26    57    1
    62    27    58    1
    63    27    59    1
    64    29    60    1
    65    29    61    1
    66    29    62    1
    67    30    63    1
    68    30    64    1
    69    30    65    1
    70    34    66    1
    71    35    67    1
    72    68     1    1
    73    68    33    1
    74    68    18    1
    75    68    11    1
@<TRIPOS>MOLECULE
*****
 68 75 0 0 0
SMALL
GASTEIGER

@<TRIPOS>ATOM
      1 O          -1.9778    1.3398   -0.5708 O.2     1  UNL1        0.0000
      2 C          -1.8148    1.0004   -1.7372 C.2     1  UNL1        0.0000
      3 N          -2.8303    0.1371   -2.2177 N.am    1  UNL1        0.0000
      4 C          -4.1576    0.2470   -1.6043 C.3     1  UNL1        0.0000
      5 C          -2.5990   -1.1074   -3.0093 C.3     1  UNL1        0.0000
      6 C          -3.0812   -2.4098   -2.2021 C.3     1  UNL1        0.0000
      7 C          -2.6787   -3.7981   -2.7035 C.3     1  UNL1        0.0000
      8 C          -0.4056    1.2664   -2.2873 C.ar    1  UNL1        0.0000
      9 C           0.0662    1.0825   -3.6003 C.ar    1  UNL1        0.0000
     10 C           1.4507    1.3207   -3.8773 C.ar    1  UNL1        0.0000
     11 N           0.5203    1.6517   -1.3628 N.ar    1  UNL1        0.0000
     12 C           1.8418    1.8103   -1.5603 C.ar    1  UNL1        0.0000
     13 C           2.3570    1.6699   -2.8385 C.ar    1  UNL1        0.0000
     14 C           3.7510    1.8229   -2.9985 C.ar    1  UNL1        0.0000
     15 C           4.5916    1.9976   -1.8485 C.ar    1  UNL1        0.0000
     16 C           4.0426    1.9887   -0.5547 C.ar    1  UNL1        0.0000
     17 C           2.6587    1.9581   -0.4330 C.ar    1  UNL1        0.0000
     18 N           2.1279    1.8951    0.7760 N.ar    1  UNL1        0.0000
     19 C           2.7973    1.5942    1.9177 C.ar    1  UNL1        0.0000
     20 C           1.9441    0.8524    2.9498 C.ar    1  UNL1        0.0000
     21 N           2.0029   -0.6029    2.9717 N.ar    1  UNL1        0.0000
     22 C           0.8142   -1.4257    3.0660 C.ar    1  UNL1        0.0000
     23 C           0.4681   -2.9388    2.4594 C.3     1  UNL1        0.0000
     24 C          -0.6134   -3.6885    3.3041 C.3     1  UNL1        0.0000
     25 C           1.6877   -3.8556    2.3534 C.3     1  UNL1        0.0000
     26 C          -0.3433   -2.9965    1.0923 C.3     1  UNL1        0.0000
     27 C          -1.4274   -1.8632    1.1313 C.3     1  UNL1        0.0000
     28 C          -0.8580   -0.5919    1.6811 C.3     1  UNL1        0.0000
     29 C          -2.0645    0.4443    1.9197 C.3     1  UNL1        0.0000
     30 C           0.3673   -0.4855    0.5847 C.3     1  UNL1        0.0000
     31 C          -0.3268   -0.6675    3.1304 C.ar    1  UNL1        0.0000
     32 N          -0.1575    0.5586    3.7161 N.ar    1  UNL1        0.0000
     33 N           0.6725    1.3296    3.0562 N.ar    1  UNL1        0.0000
     34 C           4.1951    1.6669    1.8766 C.ar    1  UNL1        0.0000
     35 C           4.8123    1.9418    0.6379 C.ar    1  UNL1        0.0000
     36 H          -4.5575    1.2703   -1.7395 H       1  UNL1        0.0000
     37 H          -4.9019   -0.4300   -2.0692 H       1  UNL1        0.0000
     38 H          -4.1140   -0.0017   -0.5227 H       1  UNL1        0.0000
     39 H          -3.1800   -1.0879   -3.9538 H       1  UNL1        0.0000
     40 H          -1.5215   -1.2282   -3.2326 H       1  UNL1        0.0000
     41 H          -2.6679   -2.4353   -1.2255 H       1  UNL1        0.0000
     42 H          -4.1743   -2.4334   -2.0224 H       1  UNL1        0.0000
     43 H          -3.1997   -4.0584   -3.6391 H       1  UNL1        0.0000
     44 H          -2.9735   -4.5531   -1.9276 H       1  UNL1        0.0000
     45 H          -1.5776   -3.8724   -2.8082 H       1  UNL1        0.0000
     46 H          -0.6006    0.7543   -4.3866 H       1  UNL1        0.0000
     47 H           1.8157    1.1691   -4.8844 H       1  UNL1        0.0000
     48 H           4.2053    1.7383   -3.9745 H       1  UNL1        0.0000
     49 H           5.6620    2.0454   -1.9892 H       1  UNL1        0.0000
     50 H          -0.2898   -3.9674    4.3108 H       1  UNL1        0.0000
     51 H          -0.9214   -4.6359    2.7763 H       1  UNL1        0.0000
     52 H          -1.5592   -3.1107    3.3984 H       1  UNL1        0.0000
     53 H           2.4965   -3.3638    1.7790 H       1  UNL1        0.0000
     54 H           1.4106   -4.7976    1.8197 H       1  UNL1        0.0000
     55 H           2.0433   -4.1273    3.3656 H       1  UNL1        0.0000
     56 H           0.3054   -2.9494    0.1786 H       1  UNL1        0.0000
     57 H           0.3054   -2.9494    0.1786 H       1  UNL1        0.0000
     58 H          -2.3425   -2.1472    1.6631 H       1  UNL1        0.0000
     59 H          -1.7249   -1.5359    0.1377 H       1  UNL1        0.0000
     60 H          -1.7484    1.4469    2.3028 H       1  UNL1        0.0000
     61 H          -2.7056    0.0258    2.7204 H       1  UNL1        0.0000
     62 H          -2.8537    0.6835    1.2204 H       1  UNL1        0.0000
     63 H           1.1657    0.0793    0.7839 H       1  UNL1        0.0000
     64 H           1.2047   -1.2035    0.6445 H       1  UNL1        0.0000
     65 H           0.1138   -0.4953   -0.4814 H       1  UNL1        0.0000
     66 H           4.7840    1.4297    2.7507 H       1  UNL1        0.0000
     67 H           5.9065    1.9737    0.5831 H       1  UNL1        0.0000
     68 EU         -0.1615    1.6738    0.7806 Eu      1  UNL1        0.0000
@<TRIPOS>BOND
     1     1     2    2
     2     2     3   am
     3     3     4    1
     4     3     5    1
     5     5     6    1
     6     6     7    1
     7     2     8    1
     8     8     9   ar
     9     9    10   ar
    10     8    11   ar
    11    11    12   ar
    12    12    13   ar
    13    10    13   ar
    14    13    14   ar
    15    14    15   ar
    16    15    16   ar
    17    16    17   ar
    18    12    17   ar
    19    17    18   ar
    20    18    19   ar
    21    19    20    1
    22    20    21   ar
    23    21    22   ar
    24    22    23    1
    25    23    24    1
    26    23    25    1
    27    23    26    1
    28    26    27    1
    29    27    28    1
    30    28    29    1
    31    28    30    1
    32    22    31   ar
    33    28    31    1
    34    31    32   ar
    35    32    33   ar
    36    20    33   ar
    37    19    34   ar
    38    34    35   ar
    39    16    35   ar
    40     4    36    1
    41     4    37    1
    42     4    38    1
    43     5    39    1
    44     5    40    1
    45     6    41    1
    46     6    42    1
    47     7    43    1
    48     7    44    1
    49     7    45    1
    50     9    46    1
    51    10    47    1
    52    14    48    1
    53    15    49    1
    54    24    50    1
    55    24    51    1
    56    24    52    1
    57    25    53    1
    58    25    54    1
    59    25    55    1
    60    26    56    1
    61    26    57    1
    62    27    58    1
    63    27    59    1
    64    29    60    1
    65    29    61    1
    66    29    62    1
    67    30    63    1
    68    30    64    1
    69    30    65    1
    70    34    66    1
    71    35    67    1
    72    68     1    1
    73    68    33    1
    74    68    18    1
    75    68    11    1
@<TRIPOS>MOLECULE
*****
 68 75 0 0 0
SMALL
GASTEIGER

@<TRIPOS>ATOM
      1 O          -1.9948    1.4718   -0.5751 O.2     1  UNL1        0.0000
      2 C          -1.8109    1.1547   -1.7585 C.2     1  UNL1        0.0000
      3 N          -2.8163    0.3397   -2.3088 N.am    1  UNL1        0.0000
      4 C          -4.1739    0.4345   -1.7461 C.3     1  UNL1        0.0000
      5 C          -2.5351   -0.8617   -3.1461 C.3     1  UNL1        0.0000
      6 C          -3.0112   -2.1789   -2.4060 C.3     1  UNL1        0.0000
      7 C          -2.6245   -3.5541   -2.9795 C.3     1  UNL1        0.0000
      8 C          -0.3867    1.3755   -2.3202 C.ar    1  UNL1        0.0000
      9 C           0.0568    1.2341   -3.6432 C.ar    1  UNL1        0.0000
     10 C           1.4401    1.4241   -3.9357 C.ar    1  UNL1        0.0000
     11 N           0.5540    1.6462   -1.3911 N.ar    1  UNL1        0.0000
     12 C           1.8779    1.7475   -1.6064 C.ar    1  UNL1        0.0000
     13 C           2.3750    1.6844   -2.8950 C.ar    1  UNL1        0.0000
     14 C           3.7745    1.8177   -3.0630 C.ar    1  UNL1        0.0000
     15 C           4.6332    1.9378   -1.9343 C.ar    1  UNL1        0.0000
     16 C           4.1020    1.8838   -0.6279 C.ar    1  UNL1        0.0000
     17 C           2.7221    1.8309   -0.5018 C.ar    1  UNL1        0.0000
     18 N           2.1520    1.7330    0.6980 N.ar    1  UNL1        0.0000
     19 C           2.8090    1.4382    1.8468 C.ar    1  UNL1        0.0000
     20 C           1.9358    0.8226    2.8815 C.ar    1  UNL1        0.0000
     21 N           1.9933   -0.5992    2.9947 N.ar    1  UNL1        0.0000
     22 C           0.8097   -1.3804    3.0691 C.ar    1  UNL1        0.0000
     23 C           0.5661   -2.9459    2.7072 C.3     1  UNL1        0.0000
     24 C          -0.2804   -3.6506    3.8017 C.3     1  UNL1        0.0000
     25 C           1.8504   -3.7523    2.4902 C.3     1  UNL1        0.0000
     26 C          -0.3785   -3.2169    1.4688 C.3     1  UNL1        0.0000
     27 C          -1.5678   -2.2302    1.5116 C.3     1  UNL1        0.0000
     28 C          -1.0648   -0.8177    1.7599 C.3     1  UNL1        0.0000
     29 C          -2.2761    0.1471    1.8240 C.3     1  UNL1        0.0000
     30 C          -0.0259   -0.6306    0.5426 C.3     1  UNL1        0.0000
     31 C          -0.3676   -0.6463    3.1225 C.ar    1  UNL1        0.0000
     32 N          -0.2731    0.6471    3.5370 N.ar    1  UNL1        0.0000
     33 N           0.6681    1.3348    2.9394 N.ar    1  UNL1        0.0000
     34 C           4.2312    1.5032    1.8004 C.ar    1  UNL1        0.0000
     35 C           4.8701    1.7953    0.5625 C.ar    1  UNL1        0.0000
     36 H          -4.5503    1.4619   -1.8481 H       1  UNL1        0.0000
     37 H          -4.8872   -0.2345   -2.2657 H       1  UNL1        0.0000
     38 H          -4.1873    0.1292   -0.6849 H       1  UNL1        0.0000
     39 H          -3.0590   -0.7991   -4.1206 H       1  UNL1        0.0000
     40 H          -1.4452   -0.9815   -3.3113 H       1  UNL1        0.0000
     41 H          -2.5771   -2.1720   -1.4087 H       1  UNL1        0.0000
     42 H          -4.1165   -2.2198   -2.2802 H       1  UNL1        0.0000
     43 H          -3.0893   -3.7470   -3.9663 H       1  UNL1        0.0000
     44 H          -2.9936   -4.3544   -2.2848 H       1  UNL1        0.0000
     45 H          -1.5236   -3.6707   -3.0341 H       1  UNL1        0.0000
     46 H          -0.6380    0.9758   -4.4354 H       1  UNL1        0.0000
     47 H           1.7853    1.3176   -4.9551 H       1  UNL1        0.0000
     48 H           4.1992    1.7889   -4.0555 H       1  UNL1        0.0000
     49 H           5.7041    1.9893   -2.0779 H       1  UNL1        0.0000
     50 H           0.2382   -3.7358    4.7642 H       1  UNL1        0.0000
     51 H          -0.5661   -4.6818    3.4579 H       1  UNL1        0.0000
     52 H          -1.2450   -3.1306    3.9830 H       1  UNL1        0.0000
     53 H           2.4836   -3.2800    1.7144 H       1  UNL1        0.0000
     54 H           1.5967   -4.7827    2.1369 H       1  UNL1        0.0000
     55 H           2.4100   -3.8458    3.4414 H       1  UNL1        0.0000
     56 H           0.1547   -3.1841    0.4878 H       1  UNL1        0.0000
     57 H           0.1547   -3.1841    0.4878 H       1  UNL1        0.0000
     58 H          -2.3201   -2.4873    2.2701 H       1  UNL1        0.0000
     59 H          -2.1019   -2.2554    0.5563 H       1  UNL1        0.0000
     60 H          -1.9860    1.2194    1.9325 H       1  UNL1        0.0000
     61 H          -2.8836   -0.0820    2.7241 H       1  UNL1        0.0000
     62 H          -2.9389    0.0452    0.9737 H       1  UNL1        0.0000
     63 H           0.7726    0.0244    0.7036 H       1  UNL1        0.0000
     64 H           0.8508   -1.2905    0.4946 H       1  UNL1        0.0000
     65 H          -0.4530   -0.6360   -0.4686 H       1  UNL1        0.0000
     66 H           4.8129    1.2873    2.6869 H       1  UNL1        0.0000
     67 H           5.9535    1.8267    0.5182 H       1  UNL1        0.0000
     68 EU         -0.1537    1.6772    0.7301 Eu      1  UNL1        0.0000
@<TRIPOS>BOND
     1     1     2    2
     2     2     3   am
     3     3     4    1
     4     3     5    1
     5     5     6    1
     6     6     7    1
     7     2     8    1
     8     8     9   ar
     9     9    10   ar
    10     8    11   ar
    11    11    12   ar
    12    12    13   ar
    13    10    13   ar
    14    13    14   ar
    15    14    15   ar
    16    15    16   ar
    17    16    17   ar
    18    12    17   ar
    19    17    18   ar
    20    18    19   ar
    21    19    20    1
    22    20    21   ar
    23    21    22   ar
    24    22    23    1
    25    23    24    1
    26    23    25    1
    27    23    26    1
    28    26    27    1
    29    27    28    1
    30    28    29    1
    31    28    30    1
    32    22    31   ar
    33    28    31    1
    34    31    32   ar
    35    32    33   ar
    36    20    33   ar
    37    19    34   ar
    38    34    35   ar
    39    16    35   ar
    40     4    36    1
    41     4    37    1
    42     4    38    1
    43     5    39    1
    44     5    40    1
    45     6    41    1
    46     6    42    1
    47     7    43    1
    48     7    44    1
    49     7    45    1
    50     9    46    1
    51    10    47    1
    52    14    48    1
    53    15    49    1
    54    24    50    1
    55    24    51    1
    56    24    52    1
    57    25    53    1
    58    25    54    1
    59    25    55    1
    60    26    56    1
    61    26    57    1
    62    27    58    1
    63    27    59    1
    64    29    60    1
    65    29    61    1
    66    29    62    1
    67    30    63    1
    68    30    64    1
    69    30    65    1
    70    34    66    1
    71    35    67    1
    72    68     1    1
    73    68    33    1
    74    68    18    1
    75    68    11    1
@<TRIPOS>MOLECULE
*****
 68 75 0 0 0
SMALL
GASTEIGER

@<TRIPOS>ATOM
      1 O          -1.9951    1.5150   -0.6232 O.2     1  UNL1        0.0000
      2 C          -1.8150    1.2510   -1.8183 C.2     1  UNL1        0.0000
      3 N          -2.8229    0.4975   -2.4025 N.am    1  UNL1        0.0000
      4 C          -4.1860    0.6011   -1.8789 C.3     1  UNL1        0.0000
      5 C          -2.5188   -0.6885   -3.2350 C.3     1  UNL1        0.0000
      6 C          -2.9341   -1.9960   -2.4561 C.3     1  UNL1        0.0000
      7 C          -2.5547   -3.3312   -3.1060 C.3     1  UNL1        0.0000
      8 C          -0.4038    1.4345   -2.3724 C.ar    1  UNL1        0.0000
      9 C           0.0333    1.3589   -3.7129 C.ar    1  UNL1        0.0000
     10 C           1.4260    1.5129   -4.0064 C.ar    1  UNL1        0.0000
     11 N           0.5472    1.6402   -1.4516 N.ar    1  UNL1        0.0000
     12 C           1.8654    1.7209   -1.6652 C.ar    1  UNL1        0.0000
     13 C           2.3712    1.6837   -2.9514 C.ar    1  UNL1        0.0000
     14 C           3.7701    1.7930   -3.1196 C.ar    1  UNL1        0.0000
     15 C           4.6289    1.8392   -1.9856 C.ar    1  UNL1        0.0000
     16 C           4.0892    1.7546   -0.6810 C.ar    1  UNL1        0.0000
     17 C           2.7097    1.7305   -0.5598 C.ar    1  UNL1        0.0000
     18 N           2.1341    1.6143    0.6436 N.ar    1  UNL1        0.0000
     19 C           2.7917    1.3482    1.7830 C.ar    1  UNL1        0.0000
     20 C           1.8896    0.7951    2.8429 C.ar    1  UNL1        0.0000
     21 N           1.9587   -0.5986    3.0308 N.ar    1  UNL1        0.0000
     22 C           0.7878   -1.3809    3.0925 C.ar    1  UNL1        0.0000
     23 C           0.6344   -2.9578    2.8761 C.3     1  UNL1        0.0000
     24 C          -0.0371   -3.5851    4.1154 C.3     1  UNL1        0.0000
     25 C           1.9709   -3.6681    2.6191 C.3     1  UNL1        0.0000
     26 C          -0.3638   -3.3840    1.7293 C.3     1  UNL1        0.0000
     27 C          -1.6114   -2.4718    1.7193 C.3     1  UNL1        0.0000
     28 C          -1.1763   -1.0091    1.7845 C.3     1  UNL1        0.0000
     29 C          -2.4173   -0.0880    1.7510 C.3     1  UNL1        0.0000
     30 C          -0.2315   -0.7991    0.5208 C.3     1  UNL1        0.0000
     31 C          -0.4183   -0.6774    3.0908 C.ar    1  UNL1        0.0000
     32 N          -0.3771    0.6445    3.3984 N.ar    1  UNL1        0.0000
     33 N           0.6159    1.2956    2.8411 N.ar    1  UNL1        0.0000
     34 C           4.1987    1.3697    1.7502 C.ar    1  UNL1        0.0000
     35 C           4.8524    1.6391    0.5116 C.ar    1  UNL1        0.0000
     36 H          -4.5536    1.6397   -1.9807 H       1  UNL1        0.0000
     37 H          -4.8954   -0.0489   -2.4315 H       1  UNL1        0.0000
     38 H          -4.2320    0.3047   -0.8142 H       1  UNL1        0.0000
     39 H          -3.0521   -0.6402   -4.2053 H       1  UNL1        0.0000
     40 H          -1.4310   -0.7842   -3.4184 H       1  UNL1        0.0000
     41 H          -2.4596   -1.9879   -1.4541 H       1  UNL1        0.0000
     42 H          -4.0320   -2.0366   -2.3002 H       1  UNL1        0.0000
     43 H          -3.0385   -3.4540   -4.0960 H       1  UNL1        0.0000
     44 H          -2.9091   -4.1652   -2.4525 H       1  UNL1        0.0000
     45 H          -1.4543   -3.4312   -3.2011 H       1  UNL1        0.0000
     46 H          -0.6715    1.1796   -4.5109 H       1  UNL1        0.0000
     47 H           1.7622    1.4571   -5.0286 H       1  UNL1        0.0000
     48 H           4.1988    1.7954   -4.1138 H       1  UNL1        0.0000
     49 H           5.7001    1.8841   -2.1271 H       1  UNL1        0.0000
     50 H           0.5941   -3.5034    5.0149 H       1  UNL1        0.0000
     51 H          -0.2502   -4.6654    3.9223 H       1  UNL1        0.0000
     52 H          -1.0166   -3.1083    4.3330 H       1  UNL1        0.0000
     53 H           2.4728   -3.2314    1.7287 H       1  UNL1        0.0000
     54 H           1.7913   -4.7485    2.4059 H       1  UNL1        0.0000
     55 H           2.6376   -3.5871    3.4983 H       1  UNL1        0.0000
     56 H           0.1144   -3.4031    0.7262 H       1  UNL1        0.0000
     57 H           0.1144   -3.4031    0.7262 H       1  UNL1        0.0000
     58 H          -2.2728   -2.6759    2.5801 H       1  UNL1        0.0000
     59 H          -2.2072   -2.6599    0.7970 H       1  UNL1        0.0000
     60 H          -2.1439    0.9918    1.7663 H       1  UNL1        0.0000
     61 H          -3.0492   -0.2594    2.6477 H       1  UNL1        0.0000
     62 H          -3.0180   -0.2785    0.8541 H       1  UNL1        0.0000
     63 H           0.5769   -0.1215    0.6718 H       1  UNL1        0.0000
     64 H           0.6124   -1.4760    0.3774 H       1  UNL1        0.0000
     65 H          -0.7463   -0.7630   -0.4519 H       1  UNL1        0.0000
     66 H           4.7784    1.1495    2.6371 H       1  UNL1        0.0000
     67 H           5.9338    1.6513    0.4684 H       1  UNL1        0.0000
     68 EU         -0.1515    1.6298    0.6538 Eu      1  UNL1        0.0000
@<TRIPOS>BOND
     1     1     2    2
     2     2     3   am
     3     3     4    1
     4     3     5    1
     5     5     6    1
     6     6     7    1
     7     2     8    1
     8     8     9   ar
     9     9    10   ar
    10     8    11   ar
    11    11    12   ar
    12    12    13   ar
    13    10    13   ar
    14    13    14   ar
    15    14    15   ar
    16    15    16   ar
    17    16    17   ar
    18    12    17   ar
    19    17    18   ar
    20    18    19   ar
    21    19    20    1
    22    20    21   ar
    23    21    22   ar
    24    22    23    1
    25    23    24    1
    26    23    25    1
    27    23    26    1
    28    26    27    1
    29    27    28    1
    30    28    29    1
    31    28    30    1
    32    22    31   ar
    33    28    31    1
    34    31    32   ar
    35    32    33   ar
    36    20    33   ar
    37    19    34   ar
    38    34    35   ar
    39    16    35   ar
    40     4    36    1
    41     4    37    1
    42     4    38    1
    43     5    39    1
    44     5    40    1
    45     6    41    1
    46     6    42    1
    47     7    43    1
    48     7    44    1
    49     7    45    1
    50     9    46    1
    51    10    47    1
    52    14    48    1
    53    15    49    1
    54    24    50    1
    55    24    51    1
    56    24    52    1
    57    25    53    1
    58    25    54    1
    59    25    55    1
    60    26    56    1
    61    26    57    1
    62    27    58    1
    63    27    59    1
    64    29    60    1
    65    29    61    1
    66    29    62    1
    67    30    63    1
    68    30    64    1
    69    30    65    1
    70    34    66    1
    71    35    67    1
    72    68     1    1
    73    68    33    1
    74    68    18    1
    75    68    11    1
@<TRIPOS>MOLECULE
*****
 68 75 0 0 0
SMALL
GASTEIGER

@<TRIPOS>ATOM
      1 O          -1.9960    1.5486   -0.6642 O.2     1  UNL1        0.0000
      2 C          -1.8198    1.3275   -1.8683 C.2     1  UNL1        0.0000
      3 N          -2.8349    0.6158   -2.4789 N.am    1  UNL1        0.0000
      4 C          -4.1970    0.7262   -1.9581 C.3     1  UNL1        0.0000
      5 C          -2.5336   -0.5575   -3.3228 C.3     1  UNL1        0.0000
      6 C          -2.9174   -1.8665   -2.5392 C.3     1  UNL1        0.0000
      7 C          -2.5203   -3.1790   -3.2157 C.3     1  UNL1        0.0000
      8 C          -0.4068    1.4985   -2.4221 C.ar    1  UNL1        0.0000
      9 C           0.0272    1.4619   -3.7656 C.ar    1  UNL1        0.0000
     10 C           1.4227    1.5911   -4.0505 C.ar    1  UNL1        0.0000
     11 N           0.5401    1.6534   -1.4983 N.ar    1  UNL1        0.0000
     12 C           1.8668    1.6977   -1.7062 C.ar    1  UNL1        0.0000
     13 C           2.3634    1.7054   -2.9942 C.ar    1  UNL1        0.0000
     14 C           3.7738    1.7757   -3.1538 C.ar    1  UNL1        0.0000
     15 C           4.6306    1.7738   -2.0124 C.ar    1  UNL1        0.0000
     16 C           4.0865    1.6795   -0.7115 C.ar    1  UNL1        0.0000
     17 C           2.7028    1.6808   -0.5950 C.ar    1  UNL1        0.0000
     18 N           2.1229    1.5647    0.6054 N.ar    1  UNL1        0.0000
     19 C           2.7630    1.2933    1.7496 C.ar    1  UNL1        0.0000
     20 C           1.8374    0.7798    2.8106 C.ar    1  UNL1        0.0000
     21 N           1.9283   -0.5942    3.0673 N.ar    1  UNL1        0.0000
     22 C           0.7707   -1.3802    3.1327 C.ar    1  UNL1        0.0000
     23 C           0.6901   -2.9529    3.0089 C.3     1  UNL1        0.0000
     24 C           0.1155   -3.5187    4.3177 C.3     1  UNL1        0.0000
     25 C           2.0598   -3.5974    2.7398 C.3     1  UNL1        0.0000
     26 C          -0.3175   -3.4833    1.9176 C.3     1  UNL1        0.0000
     27 C          -1.6071   -2.6275    1.8723 C.3     1  UNL1        0.0000
     28 C          -1.2436   -1.1426    1.8196 C.3     1  UNL1        0.0000
     29 C          -2.5188   -0.2726    1.7292 C.3     1  UNL1        0.0000
     30 C          -0.3525   -0.9279    0.5248 C.3     1  UNL1        0.0000
     31 C          -0.4572   -0.7063    3.0769 C.ar    1  UNL1        0.0000
     32 N          -0.4546    0.6308    3.2967 N.ar    1  UNL1        0.0000
     33 N           0.5595    1.2691    2.7790 N.ar    1  UNL1        0.0000
     34 C           4.1722    1.2732    1.7212 C.ar    1  UNL1        0.0000
     35 C           4.8384    1.5278    0.4841 C.ar    1  UNL1        0.0000
     36 H          -4.5533    1.7694   -2.0630 H       1  UNL1        0.0000
     37 H          -4.9071    0.0812   -2.5175 H       1  UNL1        0.0000
     38 H          -4.2391    0.4308   -0.8893 H       1  UNL1        0.0000
     39 H          -3.0803   -0.5093   -4.2855 H       1  UNL1        0.0000
     40 H          -1.4484   -0.6456   -3.5250 H       1  UNL1        0.0000
     41 H          -2.4299   -1.8707   -1.5445 H       1  UNL1        0.0000
     42 H          -4.0103   -1.9200   -2.3590 H       1  UNL1        0.0000
     43 H          -3.0187   -3.2868   -4.1994 H       1  UNL1        0.0000
     44 H          -2.8406   -4.0322   -2.5722 H       1  UNL1        0.0000
     45 H          -1.4190   -3.2465   -3.3344 H       1  UNL1        0.0000
     46 H          -0.6805    1.3304   -4.5716 H       1  UNL1        0.0000
     47 H           1.7618    1.5608   -5.0766 H       1  UNL1        0.0000
     48 H           4.2122    1.7990   -4.1423 H       1  UNL1        0.0000
     49 H           5.7040    1.7876   -2.1515 H       1  UNL1        0.0000
     50 H           0.7878   -3.3201    5.1723 H       1  UNL1        0.0000
     51 H          -0.0275   -4.6229    4.2227 H       1  UNL1        0.0000
     52 H          -0.8795   -3.0831    4.5447 H       1  UNL1        0.0000
     53 H           2.4875   -3.2037    1.7908 H       1  UNL1        0.0000
     54 H           1.9457   -4.7013    2.6198 H       1  UNL1        0.0000
     55 H           2.7688   -3.3990    3.5660 H       1  UNL1        0.0000
     56 H           0.1424   -3.5400    0.9079 H       1  UNL1        0.0000
     57 H           0.1424   -3.5400    0.9079 H       1  UNL1        0.0000
     58 H          -2.2264   -2.7976    2.7734 H       1  UNL1        0.0000
     59 H          -2.2183   -2.9111    0.9846 H       1  UNL1        0.0000
     60 H          -2.2709    0.8107    1.6731 H       1  UNL1        0.0000
     61 H          -3.1528   -0.4128    2.6279 H       1  UNL1        0.0000
     62 H          -3.1008   -0.5262    0.8258 H       1  UNL1        0.0000
     63 H           0.4300   -0.2113    0.6595 H       1  UNL1        0.0000
     64 H           0.4597   -1.6236    0.3135 H       1  UNL1        0.0000
     65 H          -0.9138   -0.8351   -0.4157 H       1  UNL1        0.0000
     66 H           4.7439    1.0394    2.6109 H       1  UNL1        0.0000
     67 H           5.9201    1.5101    0.4457 H       1  UNL1        0.0000
     68 EU         -0.1490    1.6086    0.5928 Eu      1  UNL1        0.0000
@<TRIPOS>BOND
     1     1     2    2
     2     2     3   am
     3     3     4    1
     4     3     5    1
     5     5     6    1
     6     6     7    1
     7     2     8    1
     8     8     9   ar
     9     9    10   ar
    10     8    11   ar
    11    11    12   ar
    12    12    13   ar
    13    10    13   ar
    14    13    14   ar
    15    14    15   ar
    16    15    16   ar
    17    16    17   ar
    18    12    17   ar
    19    17    18   ar
    20    18    19   ar
    21    19    20    1
    22    20    21   ar
    23    21    22   ar
    24    22    23    1
    25    23    24    1
    26    23    25    1
    27    23    26    1
    28    26    27    1
    29    27    28    1
    30    28    29    1
    31    28    30    1
    32    22    31   ar
    33    28    31    1
    34    31    32   ar
    35    32    33   ar
    36    20    33   ar
    37    19    34   ar
    38    34    35   ar
    39    16    35   ar
    40     4    36    1
    41     4    37    1
    42     4    38    1
    43     5    39    1
    44     5    40    1
    45     6    41    1
    46     6    42    1
    47     7    43    1
    48     7    44    1
    49     7    45    1
    50     9    46    1
    51    10    47    1
    52    14    48    1
    53    15    49    1
    54    24    50    1
    55    24    51    1
    56    24    52    1
    57    25    53    1
    58    25    54    1
    59    25    55    1
    60    26    56    1
    61    26    57    1
    62    27    58    1
    63    27    59    1
    64    29    60    1
    65    29    61    1
    66    29    62    1
    67    30    63    1
    68    30    64    1
    69    30    65    1
    70    34    66    1
    71    35    67    1
    72    68     1    1
    73    68    33    1
    74    68    18    1
    75    68    11    1
@<TRIPOS>MOLECULE
*****
 68 75 0 0 0
SMALL
GASTEIGER

@<TRIPOS>ATOM
      1 O          -1.9932    1.5774   -0.7174 O.2     1  UNL1        0.0000
      2 C          -1.8196    1.3881   -1.9282 C.2     1  UNL1        0.0000
      3 N          -2.8491    0.7145   -2.5531 N.am    1  UNL1        0.0000
      4 C          -4.2064    0.8278   -2.0186 C.3     1  UNL1        0.0000
      5 C          -2.5624   -0.4373   -3.4297 C.3     1  UNL1        0.0000
      6 C          -2.9377   -1.7565   -2.6683 C.3     1  UNL1        0.0000
      7 C          -2.5102   -3.0513   -3.3614 C.3     1  UNL1        0.0000
      8 C          -0.4080    1.5552   -2.4844 C.ar    1  UNL1        0.0000
      9 C           0.0308    1.5532   -3.8239 C.ar    1  UNL1        0.0000
     10 C           1.4304    1.6613   -4.1046 C.ar    1  UNL1        0.0000
     11 N           0.5387    1.6678   -1.5571 N.ar    1  UNL1        0.0000
     12 C           1.8732    1.7022   -1.7565 C.ar    1  UNL1        0.0000
     13 C           2.3695    1.7234   -3.0440 C.ar    1  UNL1        0.0000
     14 C           3.7817    1.7641   -3.1940 C.ar    1  UNL1        0.0000
     15 C           4.6332    1.7207   -2.0500 C.ar    1  UNL1        0.0000
     16 C           4.0780    1.6206   -0.7525 C.ar    1  UNL1        0.0000
     17 C           2.6974    1.6500   -0.6477 C.ar    1  UNL1        0.0000
     18 N           2.1092    1.5284    0.5564 N.ar    1  UNL1        0.0000
     19 C           2.7386    1.2525    1.7065 C.ar    1  UNL1        0.0000
     20 C           1.8033    0.7693    2.7693 C.ar    1  UNL1        0.0000
     21 N           1.9134   -0.5815    3.0902 N.ar    1  UNL1        0.0000
     22 C           0.7704   -1.3770    3.1758 C.ar    1  UNL1        0.0000
     23 C           0.7463   -2.9492    3.1405 C.3     1  UNL1        0.0000
     24 C           0.2344   -3.4552    4.4962 C.3     1  UNL1        0.0000
     25 C           2.1393   -3.5392    2.8717 C.3     1  UNL1        0.0000
     26 C          -0.2597   -3.5634    2.0975 C.3     1  UNL1        0.0000
     27 C          -1.5846   -2.7637    2.0268 C.3     1  UNL1        0.0000
     28 C          -1.2924   -1.2662    1.8800 C.3     1  UNL1        0.0000
     29 C          -2.6079   -0.4561    1.7606 C.3     1  UNL1        0.0000
     30 C          -0.4596   -1.0494    0.5515 C.3     1  UNL1        0.0000
     31 C          -0.4770   -0.7325    3.0803 C.ar    1  UNL1        0.0000
     32 N          -0.5095    0.6135    3.2074 N.ar    1  UNL1        0.0000
     33 N           0.5190    1.2404    2.7060 N.ar    1  UNL1        0.0000
     34 C           4.1463    1.1999    1.6803 C.ar    1  UNL1        0.0000
     35 C           4.8214    1.4390    0.4456 C.ar    1  UNL1        0.0000
     36 H          -4.5527    1.8769   -2.1049 H       1  UNL1        0.0000
     37 H          -4.9256    0.1990   -2.5832 H       1  UNL1        0.0000
     38 H          -4.2372    0.5158   -0.9516 H       1  UNL1        0.0000
     39 H          -3.1193   -0.3646   -4.3846 H       1  UNL1        0.0000
     40 H          -1.4807   -0.5205   -3.6458 H       1  UNL1        0.0000
     41 H          -2.4529   -1.7723   -1.6795 H       1  UNL1        0.0000
     42 H          -4.0281   -1.8222   -2.4871 H       1  UNL1        0.0000
     43 H          -3.0080   -3.1522   -4.3456 H       1  UNL1        0.0000
     44 H          -2.8070   -3.9154   -2.7242 H       1  UNL1        0.0000
     45 H          -1.4072   -3.0833   -3.4803 H       1  UNL1        0.0000
     46 H          -0.6805    1.4616   -4.6390 H       1  UNL1        0.0000
     47 H           1.7687    1.6533   -5.1329 H       1  UNL1        0.0000
     48 H           4.2214    1.7924   -4.1852 H       1  UNL1        0.0000
     49 H           5.7071    1.7127   -2.1831 H       1  UNL1        0.0000
     50 H           0.9203   -3.1627    5.3110 H       1  UNL1        0.0000
     51 H           0.1531   -4.5673    4.4764 H       1  UNL1        0.0000
     52 H          -0.7754   -3.0541    4.7240 H       1  UNL1        0.0000
     53 H           2.5174   -3.1856    1.8831 H       1  UNL1        0.0000
     54 H           2.0823   -4.6520    2.8238 H       1  UNL1        0.0000
     55 H           2.8596   -3.2468    3.6551 H       1  UNL1        0.0000
     56 H           0.1904   -3.6304    1.0807 H       1  UNL1        0.0000
     57 H           0.1904   -3.6304    1.0807 H       1  UNL1        0.0000
     58 H          -2.1739   -2.9093    2.9527 H       1  UNL1        0.0000
     59 H          -2.2025   -3.1290    1.1740 H       1  UNL1        0.0000
     60 H          -2.4019    0.6298    1.6258 H       1  UNL1        0.0000
     61 H          -3.2293   -0.5706    2.6712 H       1  UNL1        0.0000
     62 H          -3.1928   -0.7800    0.8752 H       1  UNL1        0.0000
     63 H           0.2753   -0.2807    0.6593 H       1  UNL1        0.0000
     64 H           0.3381   -1.7483    0.2960 H       1  UNL1        0.0000
     65 H          -1.0659   -0.9266   -0.3539 H       1  UNL1        0.0000
     66 H           4.7059    0.9501    2.5720 H       1  UNL1        0.0000
     67 H           5.9027    1.3933    0.4113 H       1  UNL1        0.0000
     68 EU         -0.1497    1.5956    0.5249 Eu      1  UNL1        0.0000
@<TRIPOS>BOND
     1     1     2    2
     2     2     3   am
     3     3     4    1
     4     3     5    1
     5     5     6    1
     6     6     7    1
     7     2     8    1
     8     8     9   ar
     9     9    10   ar
    10     8    11   ar
    11    11    12   ar
    12    12    13   ar
    13    10    13   ar
    14    13    14   ar
    15    14    15   ar
    16    15    16   ar
    17    16    17   ar
    18    12    17   ar
    19    17    18   ar
    20    18    19   ar
    21    19    20    1
    22    20    21   ar
    23    21    22   ar
    24    22    23    1
    25    23    24    1
    26    23    25    1
    27    23    26    1
    28    26    27    1
    29    27    28    1
    30    28    29    1
    31    28    30    1
    32    22    31   ar
    33    28    31    1
    34    31    32   ar
    35    32    33   ar
    36    20    33   ar
    37    19    34   ar
    38    34    35   ar
    39    16    35   ar
    40     4    36    1
    41     4    37    1
    42     4    38    1
    43     5    39    1
    44     5    40    1
    45     6    41    1
    46     6    42    1
    47     7    43    1
    48     7    44    1
    49     7    45    1
    50     9    46    1
    51    10    47    1
    52    14    48    1
    53    15    49    1
    54    24    50    1
    55    24    51    1
    56    24    52    1
    57    25    53    1
    58    25    54    1
    59    25    55    1
    60    26    56    1
    61    26    57    1
    62    27    58    1
    63    27    59    1
    64    29    60    1
    65    29    61    1
    66    29    62    1
    67    30    63    1
    68    30    64    1
    69    30    65    1
    70    34    66    1
    71    35    67    1
    72    68     1    1
    73    68    33    1
    74    68    18    1
    75    68    11    1
@<TRIPOS>MOLECULE
*****
 68 75 0 0 0
SMALL
GASTEIGER

@<TRIPOS>ATOM
      1 O          -1.9897    1.6011   -0.7561 O.2     1  UNL1        0.0000
      2 C          -1.8206    1.4329   -1.9721 C.2     1  UNL1        0.0000
      3 N          -2.8611    0.7971   -2.6135 N.am    1  UNL1        0.0000
      4 C          -4.2138    0.9080   -2.0682 C.3     1  UNL1        0.0000
      5 C          -2.5907   -0.3246   -3.5289 C.3     1  UNL1        0.0000
      6 C          -2.9627   -1.6646   -2.8045 C.3     1  UNL1        0.0000
      7 C          -2.5155   -2.9380   -3.5149 C.3     1  UNL1        0.0000
      8 C          -0.4037    1.5988   -2.5302 C.ar    1  UNL1        0.0000
      9 C           0.0358    1.6199   -3.8736 C.ar    1  UNL1        0.0000
     10 C           1.4368    1.7120   -4.1469 C.ar    1  UNL1        0.0000
     11 N           0.5518    1.6906   -1.6048 N.ar    1  UNL1        0.0000
     12 C           1.8790    1.7082   -1.7982 C.ar    1  UNL1        0.0000
     13 C           2.3822    1.7380   -3.0852 C.ar    1  UNL1        0.0000
     14 C           3.7918    1.7568   -3.2286 C.ar    1  UNL1        0.0000
     15 C           4.6407    1.6828   -2.0811 C.ar    1  UNL1        0.0000
     16 C           4.0835    1.5742   -0.7876 C.ar    1  UNL1        0.0000
     17 C           2.7031    1.6238   -0.6804 C.ar    1  UNL1        0.0000
     18 N           2.1100    1.4989    0.5154 N.ar    1  UNL1        0.0000
     19 C           2.7302    1.2063    1.6678 C.ar    1  UNL1        0.0000
     20 C           1.7791    0.7444    2.7335 C.ar    1  UNL1        0.0000
     21 N           1.9021   -0.5842    3.1040 N.ar    1  UNL1        0.0000
     22 C           0.7728   -1.3804    3.2208 C.ar    1  UNL1        0.0000
     23 C           0.7927   -2.9412    3.2519 C.3     1  UNL1        0.0000
     24 C           0.3191   -3.4014    4.6386 C.3     1  UNL1        0.0000
     25 C           2.2030   -3.4984    2.9873 C.3     1  UNL1        0.0000
     26 C          -0.2000   -3.6180    2.2353 C.3     1  UNL1        0.0000
     27 C          -1.5578   -2.8726    2.1700 C.3     1  UNL1        0.0000
     28 C          -1.3247   -1.3698    1.9502 C.3     1  UNL1        0.0000
     29 C          -2.6769   -0.6118    1.8351 C.3     1  UNL1        0.0000
     30 C          -0.5557   -1.1684    0.5930 C.3     1  UNL1        0.0000
     31 C          -0.4875   -0.7589    3.0941 C.ar    1  UNL1        0.0000
     32 N          -0.5415    0.5890    3.1308 N.ar    1  UNL1        0.0000
     33 N           0.4982    1.2117    2.6454 N.ar    1  UNL1        0.0000
     34 C           4.1355    1.1359    1.6473 C.ar    1  UNL1        0.0000
     35 C           4.8204    1.3744    0.4119 C.ar    1  UNL1        0.0000
     36 H          -4.5519    1.9617   -2.1247 H       1  UNL1        0.0000
     37 H          -4.9422    0.2999   -2.6449 H       1  UNL1        0.0000
     38 H          -4.2417    0.5668   -1.0088 H       1  UNL1        0.0000
     39 H          -3.1543   -0.2223   -4.4768 H       1  UNL1        0.0000
     40 H          -1.5121   -0.4104   -3.7567 H       1  UNL1        0.0000
     41 H          -2.4815   -1.6918   -1.8153 H       1  UNL1        0.0000
     42 H          -4.0549   -1.7380   -2.6257 H       1  UNL1        0.0000
     43 H          -3.0047   -3.0313   -4.5031 H       1  UNL1        0.0000
     44 H          -2.8015   -3.8185   -2.8921 H       1  UNL1        0.0000
     45 H          -1.4107   -2.9529   -3.6269 H       1  UNL1        0.0000
     46 H          -0.6752    1.5597   -4.6876 H       1  UNL1        0.0000
     47 H           1.7799    1.7144   -5.1723 H       1  UNL1        0.0000
     48 H           4.2339    1.7884   -4.2158 H       1  UNL1        0.0000
     49 H           5.7144    1.6568   -2.2116 H       1  UNL1        0.0000
     50 H           1.0090   -3.0425    5.4263 H       1  UNL1        0.0000
     51 H           0.2798   -4.5140    4.6756 H       1  UNL1        0.0000
     52 H          -0.6985   -3.0210    4.8672 H       1  UNL1        0.0000
     53 H           2.5559   -3.1742    1.9821 H       1  UNL1        0.0000
     54 H           2.1884   -4.6111    2.9962 H       1  UNL1        0.0000
     55 H           2.9244   -3.1398    3.7476 H       1  UNL1        0.0000
     56 H           0.2410   -3.6883    1.2239 H       1  UNL1        0.0000
     57 H           0.2410   -3.6883    1.2239 H       1  UNL1        0.0000
     58 H          -2.1211   -3.0034    3.1136 H       1  UNL1        0.0000
     59 H          -2.1774   -3.2961    1.3466 H       1  UNL1        0.0000
     60 H          -2.5107    0.4716    1.6339 H       1  UNL1        0.0000
     61 H          -3.2710   -0.7027    2.7659 H       1  UNL1        0.0000
     62 H          -3.2735   -0.9974    0.9809 H       1  UNL1        0.0000
     63 H           0.0877   -0.3229    0.6327 H       1  UNL1        0.0000
     64 H           0.2748   -1.8320    0.3398 H       1  UNL1        0.0000
     65 H          -1.2059   -1.1095   -0.2857 H       1  UNL1        0.0000
     66 H           4.6883    0.8740    2.5394 H       1  UNL1        0.0000
     67 H           5.8990    1.3109    0.3842 H       1  UNL1        0.0000
     68 EU         -0.1386    1.5882    0.4678 Eu      1  UNL1        0.0000
@<TRIPOS>BOND
     1     1     2    2
     2     2     3   am
     3     3     4    1
     4     3     5    1
     5     5     6    1
     6     6     7    1
     7     2     8    1
     8     8     9   ar
     9     9    10   ar
    10     8    11   ar
    11    11    12   ar
    12    12    13   ar
    13    10    13   ar
    14    13    14   ar
    15    14    15   ar
    16    15    16   ar
    17    16    17   ar
    18    12    17   ar
    19    17    18   ar
    20    18    19   ar
    21    19    20    1
    22    20    21   ar
    23    21    22   ar
    24    22    23    1
    25    23    24    1
    26    23    25    1
    27    23    26    1
    28    26    27    1
    29    27    28    1
    30    28    29    1
    31    28    30    1
    32    22    31   ar
    33    28    31    1
    34    31    32   ar
    35    32    33   ar
    36    20    33   ar
    37    19    34   ar
    38    34    35   ar
    39    16    35   ar
    40     4    36    1
    41     4    37    1
    42     4    38    1
    43     5    39    1
    44     5    40    1
    45     6    41    1
    46     6    42    1
    47     7    43    1
    48     7    44    1
    49     7    45    1
    50     9    46    1
    51    10    47    1
    52    14    48    1
    53    15    49    1
    54    24    50    1
    55    24    51    1
    56    24    52    1
    57    25    53    1
    58    25    54    1
    59    25    55    1
    60    26    56    1
    61    26    57    1
    62    27    58    1
    63    27    59    1
    64    29    60    1
    65    29    61    1
    66    29    62    1
    67    30    63    1
    68    30    64    1
    69    30    65    1
    70    34    66    1
    71    35    67    1
    72    68     1    1
    73    68    33    1
    74    68    18    1
    75    68    11    1
@<TRIPOS>MOLECULE
*****
 68 75 0 0 0
SMALL
GASTEIGER

@<TRIPOS>ATOM
      1 O          -1.9728    1.6452   -0.7987 O.2     1  UNL1        0.0000
      2 C          -1.8111    1.5030   -2.0165 C.2     1  UNL1        0.0000
      3 N          -2.8590    0.8869   -2.6734 N.am    1  UNL1        0.0000
      4 C          -4.2088    0.9880   -2.1129 C.3     1  UNL1        0.0000
      5 C          -2.6061   -0.2103   -3.6222 C.3     1  UNL1        0.0000
      6 C          -2.9795   -1.5652   -2.9321 C.3     1  UNL1        0.0000
      7 C          -2.5246   -2.8277   -3.6658 C.3     1  UNL1        0.0000
      8 C          -0.3926    1.6616   -2.5760 C.ar    1  UNL1        0.0000
      9 C           0.0533    1.6912   -3.9174 C.ar    1  UNL1        0.0000
     10 C           1.4569    1.7674   -4.1857 C.ar    1  UNL1        0.0000
     11 N           0.5619    1.7197   -1.6509 N.ar    1  UNL1        0.0000
     12 C           1.8894    1.7191   -1.8385 C.ar    1  UNL1        0.0000
     13 C           2.3984    1.7597   -3.1228 C.ar    1  UNL1        0.0000
     14 C           3.8016    1.7597   -3.2621 C.ar    1  UNL1        0.0000
     15 C           4.6484    1.6587   -2.1178 C.ar    1  UNL1        0.0000
     16 C           4.0910    1.5438   -0.8204 C.ar    1  UNL1        0.0000
     17 C           2.7101    1.6156   -0.7215 C.ar    1  UNL1        0.0000
     18 N           2.1232    1.4865    0.4751 N.ar    1  UNL1        0.0000
     19 C           2.7296    1.1838    1.6291 C.ar    1  UNL1        0.0000
     20 C           1.7674    0.7286    2.6878 C.ar    1  UNL1        0.0000
     21 N           1.9063   -0.5761    3.1230 N.ar    1  UNL1        0.0000
     22 C           0.7817   -1.3830    3.2569 C.ar    1  UNL1        0.0000
     23 C           0.8338   -2.9407    3.3579 C.3     1  UNL1        0.0000
     24 C           0.3912   -3.3494    4.7637 C.3     1  UNL1        0.0000
     25 C           2.2585   -3.4682    3.0965 C.3     1  UNL1        0.0000
     26 C          -0.1458   -3.6671    2.3690 C.3     1  UNL1        0.0000
     27 C          -1.5313   -2.9768    2.3241 C.3     1  UNL1        0.0000
     28 C          -1.3684   -1.4764    2.0371 C.3     1  UNL1        0.0000
     29 C          -2.7404   -0.7628    1.9306 C.3     1  UNL1        0.0000
     30 C          -0.6653   -1.3153    0.6441 C.3     1  UNL1        0.0000
     31 C          -0.4895   -0.7861    3.0972 C.ar    1  UNL1        0.0000
     32 N          -0.5668    0.5594    3.0489 N.ar    1  UNL1        0.0000
     33 N           0.4832    1.1779    2.5787 N.ar    1  UNL1        0.0000
     34 C           4.1301    1.0800    1.6093 C.ar    1  UNL1        0.0000
     35 C           4.8194    1.3172    0.3753 C.ar    1  UNL1        0.0000
     36 H          -4.5458    2.0428   -2.1370 H       1  UNL1        0.0000
     37 H          -4.9458    0.3960   -2.7006 H       1  UNL1        0.0000
     38 H          -4.2326    0.6128   -1.0642 H       1  UNL1        0.0000
     39 H          -3.1781   -0.0806   -4.5637 H       1  UNL1        0.0000
     40 H          -1.5317   -0.2997   -3.8603 H       1  UNL1        0.0000
     41 H          -2.4928   -1.6046   -1.9444 H       1  UNL1        0.0000
     42 H          -4.0703   -1.6490   -2.7560 H       1  UNL1        0.0000
     43 H          -3.0101   -2.9065   -4.6572 H       1  UNL1        0.0000
     44 H          -2.8080   -3.7213   -3.0603 H       1  UNL1        0.0000
     45 H          -1.4197   -2.8363   -3.7744 H       1  UNL1        0.0000
     46 H          -0.6558    1.6481   -4.7315 H       1  UNL1        0.0000
     47 H           1.7986    1.7824   -5.2107 H       1  UNL1        0.0000
     48 H           4.2530    1.7979   -4.2468 H       1  UNL1        0.0000
     49 H           5.7240    1.6105   -2.2400 H       1  UNL1        0.0000
     50 H           1.0832   -2.9407    5.5274 H       1  UNL1        0.0000
     51 H           0.3804   -4.4596    4.8472 H       1  UNL1        0.0000
     52 H          -0.6304   -2.9823    4.9936 H       1  UNL1        0.0000
     53 H           2.5948   -3.1743    2.0764 H       1  UNL1        0.0000
     54 H           2.2738   -4.5784    3.1504 H       1  UNL1        0.0000
     55 H           2.9785   -3.0597    3.8345 H       1  UNL1        0.0000
     56 H           0.2783   -3.7286    1.3463 H       1  UNL1        0.0000
     57 H           0.2783   -3.7286    1.3463 H       1  UNL1        0.0000
     58 H          -2.0650   -3.0896    3.2821 H       1  UNL1        0.0000
     59 H          -2.1575   -3.4485    1.5297 H       1  UNL1        0.0000
     60 H          -2.6115    0.3150    1.6680 H       1  UNL1        0.0000
     61 H          -3.2979   -0.8213    2.8848 H       1  UNL1        0.0000
     62 H          -3.3532   -1.2029    1.1156 H       1  UNL1        0.0000
     63 H          -0.3222   -0.3287    0.4989 H       1  UNL1        0.0000
     64 H           0.2990   -1.8223    0.4871 H       1  UNL1        0.0000
     65 H          -1.3258   -1.5510   -0.1960 H       1  UNL1        0.0000
     66 H           4.6789    0.8035    2.5023 H       1  UNL1        0.0000
     67 H           5.8980    1.2335    0.3495 H       1  UNL1        0.0000
     68 EU         -0.1165    1.5958    0.4160 Eu      1  UNL1        0.0000
@<TRIPOS>BOND
     1     1     2    2
     2     2     3   am
     3     3     4    1
     4     3     5    1
     5     5     6    1
     6     6     7    1
     7     2     8    1
     8     8     9   ar
     9     9    10   ar
    10     8    11   ar
    11    11    12   ar
    12    12    13   ar
    13    10    13   ar
    14    13    14   ar
    15    14    15   ar
    16    15    16   ar
    17    16    17   ar
    18    12    17   ar
    19    17    18   ar
    20    18    19   ar
    21    19    20    1
    22    20    21   ar
    23    21    22   ar
    24    22    23    1
    25    23    24    1
    26    23    25    1
    27    23    26    1
    28    26    27    1
    29    27    28    1
    30    28    29    1
    31    28    30    1
    32    22    31   ar
    33    28    31    1
    34    31    32   ar
    35    32    33   ar
    36    20    33   ar
    37    19    34   ar
    38    34    35   ar
    39    16    35   ar
    40     4    36    1
    41     4    37    1
    42     4    38    1
    43     5    39    1
    44     5    40    1
    45     6    41    1
    46     6    42    1
    47     7    43    1
    48     7    44    1
    49     7    45    1
    50     9    46    1
    51    10    47    1
    52    14    48    1
    53    15    49    1
    54    24    50    1
    55    24    51    1
    56    24    52    1
    57    25    53    1
    58    25    54    1
    59    25    55    1
    60    26    56    1
    61    26    57    1
    62    27    58    1
    63    27    59    1
    64    29    60    1
    65    29    61    1
    66    29    62    1
    67    30    63    1
    68    30    64    1
    69    30    65    1
    70    34    66    1
    71    35    67    1
    72    68     1    1
    73    68    33    1
    74    68    18    1
    75    68    11    1
@<TRIPOS>MOLECULE
*****
 68 75 0 0 0
SMALL
GASTEIGER

@<TRIPOS>ATOM
      1 O          -1.9412    1.6101   -0.8327 O.2     1  UNL1        0.0000
      2 C          -1.7899    1.5170   -2.0580 C.2     1  UNL1        0.0000
      3 N          -2.8521    0.9517   -2.7273 N.am    1  UNL1        0.0000
      4 C          -4.1960    1.0553   -2.1571 C.3     1  UNL1        0.0000
      5 C          -2.6134   -0.1226   -3.7015 C.3     1  UNL1        0.0000
      6 C          -2.9616   -1.4831   -3.0152 C.3     1  UNL1        0.0000
      7 C          -2.5260   -2.7265   -3.7842 C.3     1  UNL1        0.0000
      8 C          -0.3664    1.6815   -2.6219 C.ar    1  UNL1        0.0000
      9 C           0.0793    1.7463   -3.9624 C.ar    1  UNL1        0.0000
     10 C           1.4876    1.8177   -4.2272 C.ar    1  UNL1        0.0000
     11 N           0.5922    1.7196   -1.6985 N.ar    1  UNL1        0.0000
     12 C           1.9202    1.7291   -1.8812 C.ar    1  UNL1        0.0000
     13 C           2.4316    1.7889   -3.1604 C.ar    1  UNL1        0.0000
     14 C           3.8422    1.7756   -3.2966 C.ar    1  UNL1        0.0000
     15 C           4.6831    1.6492   -2.1460 C.ar    1  UNL1        0.0000
     16 C           4.1188    1.5270   -0.8530 C.ar    1  UNL1        0.0000
     17 C           2.7414    1.5988   -0.7554 C.ar    1  UNL1        0.0000
     18 N           2.1471    1.4498    0.4370 N.ar    1  UNL1        0.0000
     19 C           2.7420    1.1362    1.5953 C.ar    1  UNL1        0.0000
     20 C           1.7598    0.6890    2.6496 C.ar    1  UNL1        0.0000
     21 N           1.9066   -0.5859    3.1446 N.ar    1  UNL1        0.0000
     22 C           0.7894   -1.3900    3.2913 C.ar    1  UNL1        0.0000
     23 C           0.8728   -2.9242    3.4378 C.3     1  UNL1        0.0000
     24 C           0.4528   -3.3023    4.8673 C.3     1  UNL1        0.0000
     25 C           2.3057   -3.4384    3.1875 C.3     1  UNL1        0.0000
     26 C          -0.0896   -3.6842    2.4677 C.3     1  UNL1        0.0000
     27 C          -1.5017   -3.0568    2.4611 C.3     1  UNL1        0.0000
     28 C          -1.4218   -1.5623    2.1208 C.3     1  UNL1        0.0000
     29 C          -2.8261   -0.9167    2.0527 C.3     1  UNL1        0.0000
     30 C          -0.8197   -1.4092    0.6793 C.3     1  UNL1        0.0000
     31 C          -0.5030   -0.8082    3.1011 C.ar    1  UNL1        0.0000
     32 N          -0.5917    0.5219    2.9664 N.ar    1  UNL1        0.0000
     33 N           0.4756    1.1206    2.5019 N.ar    1  UNL1        0.0000
     34 C           4.1464    1.0416    1.5803 C.ar    1  UNL1        0.0000
     35 C           4.8411    1.2809    0.3503 C.ar    1  UNL1        0.0000
     36 H          -4.5171    2.1164   -2.1467 H       1  UNL1        0.0000
     37 H          -4.9425    0.4922   -2.7565 H       1  UNL1        0.0000
     38 H          -4.2178    0.6531   -1.1189 H       1  UNL1        0.0000
     39 H          -3.2026    0.0256   -4.6285 H       1  UNL1        0.0000
     40 H          -1.5441   -0.2034   -3.9638 H       1  UNL1        0.0000
     41 H          -2.4477   -1.5260   -2.0325 H       1  UNL1        0.0000
     42 H          -4.0525   -1.5642   -2.8230 H       1  UNL1        0.0000
     43 H          -3.0261   -2.7802   -4.7708 H       1  UNL1        0.0000
     44 H          -2.8038   -3.6315   -3.1953 H       1  UNL1        0.0000
     45 H          -1.4231   -2.7332   -3.9116 H       1  UNL1        0.0000
     46 H          -0.6273    1.7288   -4.7802 H       1  UNL1        0.0000
     47 H           1.8307    1.8506   -5.2514 H       1  UNL1        0.0000
     48 H           4.2884    1.8227   -4.2806 H       1  UNL1        0.0000
     49 H           5.7559    1.6002   -2.2730 H       1  UNL1        0.0000
     50 H           1.1478   -2.8570    5.6066 H       1  UNL1        0.0000
     51 H           0.4627   -4.4087    4.9861 H       1  UNL1        0.0000
     52 H          -0.5685   -2.9416    5.1045 H       1  UNL1        0.0000
     53 H           2.6322   -3.1741    2.1561 H       1  UNL1        0.0000
     54 H           2.3418   -4.5465    3.2795 H       1  UNL1        0.0000
     55 H           3.0224   -2.9946    3.9073 H       1  UNL1        0.0000
     56 H           0.3116   -3.7016    1.4326 H       1  UNL1        0.0000
     57 H           0.3116   -3.7016    1.4326 H       1  UNL1        0.0000
     58 H          -1.9950   -3.1696    3.4435 H       1  UNL1        0.0000
     59 H          -2.1366   -3.5847    1.7124 H       1  UNL1        0.0000
     60 H          -2.7498    0.1549    1.7446 H       1  UNL1        0.0000
     61 H          -3.3360   -0.9562    3.0326 H       1  UNL1        0.0000
     62 H          -3.4511   -1.4110    1.2781 H       1  UNL1        0.0000
     63 H          -0.8392   -0.3748    0.3511 H       1  UNL1        0.0000
     64 H           0.2497   -1.6980    0.5939 H       1  UNL1        0.0000
     65 H          -1.3994   -1.9764   -0.0716 H       1  UNL1        0.0000
     66 H           4.6886    0.7592    2.4735 H       1  UNL1        0.0000
     67 H           5.9191    1.1957    0.3261 H       1  UNL1        0.0000
     68 EU         -0.0698    1.5295    0.3471 Eu      1  UNL1        0.0000
@<TRIPOS>BOND
     1     1     2    2
     2     2     3   am
     3     3     4    1
     4     3     5    1
     5     5     6    1
     6     6     7    1
     7     2     8    1
     8     8     9   ar
     9     9    10   ar
    10     8    11   ar
    11    11    12   ar
    12    12    13   ar
    13    10    13   ar
    14    13    14   ar
    15    14    15   ar
    16    15    16   ar
    17    16    17   ar
    18    12    17   ar
    19    17    18   ar
    20    18    19   ar
    21    19    20    1
    22    20    21   ar
    23    21    22   ar
    24    22    23    1
    25    23    24    1
    26    23    25    1
    27    23    26    1
    28    26    27    1
    29    27    28    1
    30    28    29    1
    31    28    30    1
    32    22    31   ar
    33    28    31    1
    34    31    32   ar
    35    32    33   ar
    36    20    33   ar
    37    19    34   ar
    38    34    35   ar
    39    16    35   ar
    40     4    36    1
    41     4    37    1
    42     4    38    1
    43     5    39    1
    44     5    40    1
    45     6    41    1
    46     6    42    1
    47     7    43    1
    48     7    44    1
    49     7    45    1
    50     9    46    1
    51    10    47    1
    52    14    48    1
    53    15    49    1
    54    24    50    1
    55    24    51    1
    56    24    52    1
    57    25    53    1
    58    25    54    1
    59    25    55    1
    60    26    56    1
    61    26    57    1
    62    27    58    1
    63    27    59    1
    64    29    60    1
    65    29    61    1
    66    29    62    1
    67    30    63    1
    68    30    64    1
    69    30    65    1
    70    34    66    1
    71    35    67    1
    72    68     1    1
    73    68    33    1
    74    68    18    1
    75    68    11    1
@<TRIPOS>MOLECULE
*****
 68 75 0 0 0
SMALL
GASTEIGER

@<TRIPOS>ATOM
      1 O          -1.9281    1.5979   -0.8972 O.2     1  UNL1        0.0000
      2 C          -1.7767    1.5342   -2.1243 C.2     1  UNL1        0.0000
      3 N          -2.8475    1.0158   -2.8068 N.am    1  UNL1        0.0000
      4 C          -4.1861    1.1177   -2.2226 C.3     1  UNL1        0.0000
      5 C          -2.6235   -0.0482   -3.7920 C.3     1  UNL1        0.0000
      6 C          -2.9392   -1.4116   -3.1000 C.3     1  UNL1        0.0000
      7 C          -2.5274   -2.6419   -3.9000 C.3     1  UNL1        0.0000
      8 C          -0.3474    1.6958   -2.6835 C.ar    1  UNL1        0.0000
      9 C           0.1050    1.7915   -4.0185 C.ar    1  UNL1        0.0000
     10 C           1.5128    1.8616   -4.2671 C.ar    1  UNL1        0.0000
     11 N           0.6062    1.6982   -1.7552 N.ar    1  UNL1        0.0000
     12 C           1.9363    1.7070   -1.9279 C.ar    1  UNL1        0.0000
     13 C           2.4587    1.8043   -3.1994 C.ar    1  UNL1        0.0000
     14 C           3.8692    1.7957   -3.3254 C.ar    1  UNL1        0.0000
     15 C           4.7029    1.6456   -2.1720 C.ar    1  UNL1        0.0000
     16 C           4.1274    1.4956   -0.8860 C.ar    1  UNL1        0.0000
     17 C           2.7494    1.5570   -0.7976 C.ar    1  UNL1        0.0000
     18 N           2.1464    1.3962    0.3891 N.ar    1  UNL1        0.0000
     19 C           2.7352    1.0884    1.5531 C.ar    1  UNL1        0.0000
     20 C           1.7418    0.6608    2.6021 C.ar    1  UNL1        0.0000
     21 N           1.8947   -0.5886    3.1436 N.ar    1  UNL1        0.0000
     22 C           0.7801   -1.3923    3.3210 C.ar    1  UNL1        0.0000
     23 C           0.9023   -2.9186    3.5097 C.3     1  UNL1        0.0000
     24 C           0.5023   -3.2647    4.9543 C.3     1  UNL1        0.0000
     25 C           2.3444   -3.4096    3.2665 C.3     1  UNL1        0.0000
     26 C          -0.0432   -3.7031    2.5498 C.3     1  UNL1        0.0000
     27 C          -1.4764   -3.1315    2.5744 C.3     1  UNL1        0.0000
     28 C          -1.4726   -1.6392    2.2068 C.3     1  UNL1        0.0000
     29 C          -2.9045   -1.0559    2.2157 C.3     1  UNL1        0.0000
     30 C          -0.9603   -1.4716    0.7334 C.3     1  UNL1        0.0000
     31 C          -0.5170   -0.8344    3.1025 C.ar    1  UNL1        0.0000
     32 N          -0.6152    0.4847    2.8919 N.ar    1  UNL1        0.0000
     33 N           0.4524    1.0740    2.4312 N.ar    1  UNL1        0.0000
     34 C           4.1384    0.9878    1.5463 C.ar    1  UNL1        0.0000
     35 C           4.8430    1.2374    0.3220 C.ar    1  UNL1        0.0000
     36 H          -4.4902    2.1828   -2.1691 H       1  UNL1        0.0000
     37 H          -4.9444    0.5847   -2.8351 H       1  UNL1        0.0000
     38 H          -4.2068    0.6803   -1.1984 H       1  UNL1        0.0000
     39 H          -3.2419    0.0995   -4.7001 H       1  UNL1        0.0000
     40 H          -1.5631   -0.1168   -4.0886 H       1  UNL1        0.0000
     41 H          -2.3892   -1.4619   -2.1340 H       1  UNL1        0.0000
     42 H          -4.0233   -1.4956   -2.8712 H       1  UNL1        0.0000
     43 H          -3.0574   -2.6770   -4.8719 H       1  UNL1        0.0000
     44 H          -2.7870   -3.5559   -3.3177 H       1  UNL1        0.0000
     45 H          -1.4290   -2.6424   -4.0614 H       1  UNL1        0.0000
     46 H          -0.5925    1.7998   -4.8405 H       1  UNL1        0.0000
     47 H           1.8703    1.9184   -5.2915 H       1  UNL1        0.0000
     48 H           4.3241    1.8640   -4.3030 H       1  UNL1        0.0000
     49 H           5.7779    1.6023   -2.2913 H       1  UNL1        0.0000
     50 H           1.2001   -2.7887    5.6728 H       1  UNL1        0.0000
     51 H           0.5324   -4.3665    5.1042 H       1  UNL1        0.0000
     52 H          -0.5186   -2.9099    5.2007 H       1  UNL1        0.0000
     53 H           2.6639   -3.1652    2.2285 H       1  UNL1        0.0000
     54 H           2.4042   -4.5133    3.3894 H       1  UNL1        0.0000
     55 H           3.0548   -2.9324    3.9722 H       1  UNL1        0.0000
     56 H           0.3428   -3.6852    1.5081 H       1  UNL1        0.0000
     57 H           0.3428   -3.6852    1.5081 H       1  UNL1        0.0000
     58 H          -1.9332   -3.2541    3.5737 H       1  UNL1        0.0000
     59 H          -2.1130   -3.6970    1.8562 H       1  UNL1        0.0000
     60 H          -2.8963    0.0114    1.8885 H       1  UNL1        0.0000
     61 H          -3.3566   -1.1051    3.2233 H       1  UNL1        0.0000
     62 H          -3.5485   -1.5964    1.4874 H       1  UNL1        0.0000
     63 H          -1.0747   -0.4343    0.3887 H       1  UNL1        0.0000
     64 H           0.1221   -1.6895    0.6094 H       1  UNL1        0.0000
     65 H          -1.5310   -2.1048    0.0247 H       1  UNL1        0.0000
     66 H           4.6760    0.7049    2.4428 H       1  UNL1        0.0000
     67 H           5.9223    1.1573    0.3060 H       1  UNL1        0.0000
     68 EU         -0.0678    1.4827    0.2793 Eu      1  UNL1        0.0000
@<TRIPOS>BOND
     1     1     2    2
     2     2     3   am
     3     3     4    1
     4     3     5    1
     5     5     6    1
     6     6     7    1
     7     2     8    1
     8     8     9   ar
     9     9    10   ar
    10     8    11   ar
    11    11    12   ar
    12    12    13   ar
    13    10    13   ar
    14    13    14   ar
    15    14    15   ar
    16    15    16   ar
    17    16    17   ar
    18    12    17   ar
    19    17    18   ar
    20    18    19   ar
    21    19    20    1
    22    20    21   ar
    23    21    22   ar
    24    22    23    1
    25    23    24    1
    26    23    25    1
    27    23    26    1
    28    26    27    1
    29    27    28    1
    30    28    29    1
    31    28    30    1
    32    22    31   ar
    33    28    31    1
    34    31    32   ar
    35    32    33   ar
    36    20    33   ar
    37    19    34   ar
    38    34    35   ar
    39    16    35   ar
    40     4    36    1
    41     4    37    1
    42     4    38    1
    43     5    39    1
    44     5    40    1
    45     6    41    1
    46     6    42    1
    47     7    43    1
    48     7    44    1
    49     7    45    1
    50     9    46    1
    51    10    47    1
    52    14    48    1
    53    15    49    1
    54    24    50    1
    55    24    51    1
    56    24    52    1
    57    25    53    1
    58    25    54    1
    59    25    55    1
    60    26    56    1
    61    26    57    1
    62    27    58    1
    63    27    59    1
    64    29    60    1
    65    29    61    1
    66    29    62    1
    67    30    63    1
    68    30    64    1
    69    30    65    1
    70    34    66    1
    71    35    67    1
    72    68     1    1
    73    68    33    1
    74    68    18    1
    75    68    11    1
@<TRIPOS>MOLECULE
*****
 68 75 0 0 0
SMALL
GASTEIGER

@<TRIPOS>ATOM
      1 O          -1.9195    1.5931   -0.9563 O.2     1  UNL1        0.0000
      2 C          -1.7621    1.5575   -2.1847 C.2     1  UNL1        0.0000
      3 N          -2.8423    1.0759   -2.8858 N.am    1  UNL1        0.0000
      4 C          -4.1771    1.1726   -2.2918 C.3     1  UNL1        0.0000
      5 C          -2.6280    0.0211   -3.8799 C.3     1  UNL1        0.0000
      6 C          -2.9141   -1.3478   -3.1847 C.3     1  UNL1        0.0000
      7 C          -2.5289   -2.5673   -4.0124 C.3     1  UNL1        0.0000
      8 C          -0.3360    1.7144   -2.7374 C.ar    1  UNL1        0.0000
      9 C           0.1312    1.8329   -4.0633 C.ar    1  UNL1        0.0000
     10 C           1.5448    1.8992   -4.3079 C.ar    1  UNL1        0.0000
     11 N           0.6172    1.7004   -1.7986 N.ar    1  UNL1        0.0000
     12 C           1.9506    1.7082   -1.9622 C.ar    1  UNL1        0.0000
     13 C           2.4751    1.8155   -3.2339 C.ar    1  UNL1        0.0000
     14 C           3.8894    1.8024   -3.3529 C.ar    1  UNL1        0.0000
     15 C           4.7162    1.6342   -2.1966 C.ar    1  UNL1        0.0000
     16 C           4.1356    1.4723   -0.9136 C.ar    1  UNL1        0.0000
     17 C           2.7568    1.5421   -0.8282 C.ar    1  UNL1        0.0000
     18 N           2.1462    1.3700    0.3535 N.ar    1  UNL1        0.0000
     19 C           2.7262    1.0505    1.5154 C.ar    1  UNL1        0.0000
     20 C           1.7281    0.6325    2.5661 C.ar    1  UNL1        0.0000
     21 N           1.8921   -0.5929    3.1490 N.ar    1  UNL1        0.0000
     22 C           0.7843   -1.3993    3.3522 C.ar    1  UNL1        0.0000
     23 C           0.9308   -2.9137    3.5760 C.3     1  UNL1        0.0000
     24 C           0.5458   -3.2328    5.0320 C.3     1  UNL1        0.0000
     25 C           2.3798   -3.3880    3.3376 C.3     1  UNL1        0.0000
     26 C          -0.0036   -3.7228    2.6288 C.3     1  UNL1        0.0000
     27 C          -1.4510   -3.1930    2.6751 C.3     1  UNL1        0.0000
     28 C          -1.5043   -1.7029    2.2938 C.3     1  UNL1        0.0000
     29 C          -2.9498   -1.1635    2.3776 C.3     1  UNL1        0.0000
     30 C          -1.0745   -1.5316    0.7938 C.3     1  UNL1        0.0000
     31 C          -0.5205   -0.8605    3.1221 C.ar    1  UNL1        0.0000
     32 N          -0.6301    0.4459    2.8515 N.ar    1  UNL1        0.0000
     33 N           0.4377    1.0305    2.3801 N.ar    1  UNL1        0.0000
     34 C           4.1326    0.9482    1.5165 C.ar    1  UNL1        0.0000
     35 C           4.8429    1.2020    0.2938 C.ar    1  UNL1        0.0000
     36 H          -4.4688    2.2386   -2.1968 H       1  UNL1        0.0000
     37 H          -4.9420    0.6686   -2.9194 H       1  UNL1        0.0000
     38 H          -4.1999    0.6986   -1.2832 H       1  UNL1        0.0000
     39 H          -3.2734    0.1662   -4.7682 H       1  UNL1        0.0000
     40 H          -1.5764   -0.0328   -4.2057 H       1  UNL1        0.0000
     41 H          -2.3313   -1.4045   -2.2373 H       1  UNL1        0.0000
     42 H          -3.9901   -1.4345   -2.9209 H       1  UNL1        0.0000
     43 H          -3.0926   -2.5910   -4.9655 H       1  UNL1        0.0000
     44 H          -2.7676   -3.4881   -3.4323 H       1  UNL1        0.0000
     45 H          -1.4368   -2.5633   -4.2121 H       1  UNL1        0.0000
     46 H          -0.5620    1.8663   -4.8921 H       1  UNL1        0.0000
     47 H           1.9013    1.9762   -5.3261 H       1  UNL1        0.0000
     48 H           4.3502    1.8899   -4.3282 H       1  UNL1        0.0000
     49 H           5.7925    1.5935   -2.3118 H       1  UNL1        0.0000
     50 H           1.2434   -2.7316    5.7333 H       1  UNL1        0.0000
     51 H           0.5915   -4.3305    5.2063 H       1  UNL1        0.0000
     52 H          -0.4760   -2.8833    5.2816 H       1  UNL1        0.0000
     53 H           2.6923   -3.1621    2.2933 H       1  UNL1        0.0000
     54 H           2.4572   -4.4875    3.4854 H       1  UNL1        0.0000
     55 H           3.0853   -2.8844    4.0296 H       1  UNL1        0.0000
     56 H           0.3688   -3.6905    1.5823 H       1  UNL1        0.0000
     57 H           0.3688   -3.6905    1.5823 H       1  UNL1        0.0000
     58 H          -1.8798   -3.3239    3.6851 H       1  UNL1        0.0000
     59 H          -2.0871   -3.7846    1.9781 H       1  UNL1        0.0000
     60 H          -2.9952   -0.1003    2.0427 H       1  UNL1        0.0000
     61 H          -3.3433   -1.2205    3.4093 H       1  UNL1        0.0000
     62 H          -3.6152   -1.7354    1.6933 H       1  UNL1        0.0000
     63 H          -1.2167   -0.4888    0.4547 H       1  UNL1        0.0000
     64 H           0.0025   -1.7382    0.6166 H       1  UNL1        0.0000
     65 H          -1.6729   -2.1730    0.1148 H       1  UNL1        0.0000
     66 H           4.6654    0.6596    2.4118 H       1  UNL1        0.0000
     67 H           5.9224    1.1208    0.2826 H       1  UNL1        0.0000
     68 EU         -0.0717    1.4587    0.2317 Eu      1  UNL1        0.0000
@<TRIPOS>BOND
     1     1     2    2
     2     2     3   am
     3     3     4    1
     4     3     5    1
     5     5     6    1
     6     6     7    1
     7     2     8    1
     8     8     9   ar
     9     9    10   ar
    10     8    11   ar
    11    11    12   ar
    12    12    13   ar
    13    10    13   ar
    14    13    14   ar
    15    14    15   ar
    16    15    16   ar
    17    16    17   ar
    18    12    17   ar
    19    17    18   ar
    20    18    19   ar
    21    19    20    1
    22    20    21   ar
    23    21    22   ar
    24    22    23    1
    25    23    24    1
    26    23    25    1
    27    23    26    1
    28    26    27    1
    29    27    28    1
    30    28    29    1
    31    28    30    1
    32    22    31   ar
    33    28    31    1
    34    31    32   ar
    35    32    33   ar
    36    20    33   ar
    37    19    34   ar
    38    34    35   ar
    39    16    35   ar
    40     4    36    1
    41     4    37    1
    42     4    38    1
    43     5    39    1
    44     5    40    1
    45     6    41    1
    46     6    42    1
    47     7    43    1
    48     7    44    1
    49     7    45    1
    50     9    46    1
    51    10    47    1
    52    14    48    1
    53    15    49    1
    54    24    50    1
    55    24    51    1
    56    24    52    1
    57    25    53    1
    58    25    54    1
    59    25    55    1
    60    26    56    1
    61    26    57    1
    62    27    58    1
    63    27    59    1
    64    29    60    1
    65    29    61    1
    66    29    62    1
    67    30    63    1
    68    30    64    1
    69    30    65    1
    70    34    66    1
    71    35    67    1
    72    68     1    1
    73    68    33    1
    74    68    18    1
    75    68    11    1
@<TRIPOS>MOLECULE
*****
 68 75 0 0 0
SMALL
GASTEIGER

@<TRIPOS>ATOM
      1 O          -1.9227    1.5971   -1.0233 O.2     1  UNL1        0.0000
      2 C          -1.7583    1.5809   -2.2476 C.2     1  UNL1        0.0000
      3 N          -2.8391    1.1311   -2.9649 N.am    1  UNL1        0.0000
      4 C          -4.1730    1.2210   -2.3656 C.3     1  UNL1        0.0000
      5 C          -2.6329    0.0791   -3.9626 C.3     1  UNL1        0.0000
      6 C          -2.8906   -1.2914   -3.2643 C.3     1  UNL1        0.0000
      7 C          -2.5299   -2.5035   -4.1124 C.3     1  UNL1        0.0000
      8 C          -0.3221    1.7324   -2.7837 C.ar    1  UNL1        0.0000
      9 C           0.1514    1.8707   -4.1097 C.ar    1  UNL1        0.0000
     10 C           1.5656    1.9347   -4.3433 C.ar    1  UNL1        0.0000
     11 N           0.6190    1.7038   -1.8427 N.ar    1  UNL1        0.0000
     12 C           1.9518    1.7114   -1.9986 C.ar    1  UNL1        0.0000
     13 C           2.4908    1.8427   -3.2620 C.ar    1  UNL1        0.0000
     14 C           3.9034    1.8186   -3.3720 C.ar    1  UNL1        0.0000
     15 C           4.7205    1.6348   -2.2123 C.ar    1  UNL1        0.0000
     16 C           4.1302    1.4609   -0.9364 C.ar    1  UNL1        0.0000
     17 C           2.7501    1.5302   -0.8623 C.ar    1  UNL1        0.0000
     18 N           2.1322    1.3479    0.3142 N.ar    1  UNL1        0.0000
     19 C           2.7087    1.0193    1.4774 C.ar    1  UNL1        0.0000
     20 C           1.7124    0.6035    2.5230 C.ar    1  UNL1        0.0000
     21 N           1.8884   -0.5981    3.1429 N.ar    1  UNL1        0.0000
     22 C           0.7887   -1.4072    3.3767 C.ar    1  UNL1        0.0000
     23 C           0.9552   -2.9115    3.6346 C.3     1  UNL1        0.0000
     24 C           0.5840   -3.2064    5.0995 C.3     1  UNL1        0.0000
     25 C           2.4089   -3.3736    3.3976 C.3     1  UNL1        0.0000
     26 C           0.0273   -3.7397    2.6983 C.3     1  UNL1        0.0000
     27 C          -1.4302   -3.2438    2.7659 C.3     1  UNL1        0.0000
     28 C          -1.5282   -1.7582    2.3731 C.3     1  UNL1        0.0000
     29 C          -2.9774   -1.2467    2.5224 C.3     1  UNL1        0.0000
     30 C          -1.1708   -1.5953    0.8519 C.3     1  UNL1        0.0000
     31 C          -0.5216   -0.8852    3.1369 C.ar    1  UNL1        0.0000
     32 N          -0.6432    0.4083    2.8138 N.ar    1  UNL1        0.0000
     33 N           0.4215    0.9875    2.3265 N.ar    1  UNL1        0.0000
     34 C           4.1155    0.9159    1.4844 C.ar    1  UNL1        0.0000
     35 C           4.8310    1.1760    0.2713 C.ar    1  UNL1        0.0000
     36 H          -4.4520    2.2859   -2.2284 H       1  UNL1        0.0000
     37 H          -4.9440    0.7484   -3.0108 H       1  UNL1        0.0000
     38 H          -4.1995    0.7097   -1.3756 H       1  UNL1        0.0000
     39 H          -3.3031    0.2165   -4.8354 H       1  UNL1        0.0000
     40 H          -1.5905    0.0420   -4.3184 H       1  UNL1        0.0000
     41 H          -2.2792   -1.3506   -2.3346 H       1  UNL1        0.0000
     42 H          -3.9585   -1.3816   -2.9685 H       1  UNL1        0.0000
     43 H          -3.1245   -2.5196   -5.0469 H       1  UNL1        0.0000
     44 H          -2.7484   -3.4293   -3.5328 H       1  UNL1        0.0000
     45 H          -1.4452   -2.4942   -4.3484 H       1  UNL1        0.0000
     46 H          -0.5353    1.9200   -4.9432 H       1  UNL1        0.0000
     47 H           1.9339    2.0259   -5.3602 H       1  UNL1        0.0000
     48 H           4.3714    1.9124   -4.3424 H       1  UNL1        0.0000
     49 H           5.7965    1.5908   -2.3196 H       1  UNL1        0.0000
     50 H           1.2824   -2.6847    5.7858 H       1  UNL1        0.0000
     51 H           0.6423   -4.2998    5.2952 H       1  UNL1        0.0000
     52 H          -0.4378   -2.8604    5.3526 H       1  UNL1        0.0000
     53 H           2.7153   -3.1643    2.3483 H       1  UNL1        0.0000
     54 H           2.5011   -4.4687    3.5674 H       1  UNL1        0.0000
     55 H           3.1116   -2.8480    4.0770 H       1  UNL1        0.0000
     56 H           0.3874   -3.7041    1.6508 H       1  UNL1        0.0000
     57 H           0.3874   -3.7041    1.6508 H       1  UNL1        0.0000
     58 H          -1.8346   -3.3787    3.7863 H       1  UNL1        0.0000
     59 H          -2.0668   -3.8571    2.0896 H       1  UNL1        0.0000
     60 H          -3.0612   -0.1882    2.1818 H       1  UNL1        0.0000
     61 H          -3.3171   -1.3033    3.5734 H       1  UNL1        0.0000
     62 H          -3.6633   -1.8413    1.8792 H       1  UNL1        0.0000
     63 H          -1.3317   -0.5517    0.5108 H       1  UNL1        0.0000
     64 H          -0.1022   -1.8001    0.6285 H       1  UNL1        0.0000
     65 H          -1.7966   -2.2437    0.2049 H       1  UNL1        0.0000
     66 H           4.6439    0.6213    2.3824 H       1  UNL1        0.0000
     67 H           5.9102    1.0934    0.2645 H       1  UNL1        0.0000
     68 EU         -0.0924    1.4408    0.1843 Eu      1  UNL1        0.0000
@<TRIPOS>BOND
     1     1     2    2
     2     2     3   am
     3     3     4    1
     4     3     5    1
     5     5     6    1
     6     6     7    1
     7     2     8    1
     8     8     9   ar
     9     9    10   ar
    10     8    11   ar
    11    11    12   ar
    12    12    13   ar
    13    10    13   ar
    14    13    14   ar
    15    14    15   ar
    16    15    16   ar
    17    16    17   ar
    18    12    17   ar
    19    17    18   ar
    20    18    19   ar
    21    19    20    1
    22    20    21   ar
    23    21    22   ar
    24    22    23    1
    25    23    24    1
    26    23    25    1
    27    23    26    1
    28    26    27    1
    29    27    28    1
    30    28    29    1
    31    28    30    1
    32    22    31   ar
    33    28    31    1
    34    31    32   ar
    35    32    33   ar
    36    20    33   ar
    37    19    34   ar
    38    34    35   ar
    39    16    35   ar
    40     4    36    1
    41     4    37    1
    42     4    38    1
    43     5    39    1
    44     5    40    1
    45     6    41    1
    46     6    42    1
    47     7    43    1
    48     7    44    1
    49     7    45    1
    50     9    46    1
    51    10    47    1
    52    14    48    1
    53    15    49    1
    54    24    50    1
    55    24    51    1
    56    24    52    1
    57    25    53    1
    58    25    54    1
    59    25    55    1
    60    26    56    1
    61    26    57    1
    62    27    58    1
    63    27    59    1
    64    29    60    1
    65    29    61    1
    66    29    62    1
    67    30    63    1
    68    30    64    1
    69    30    65    1
    70    34    66    1
    71    35    67    1
    72    68     1    1
    73    68    33    1
    74    68    18    1
    75    68    11    1
@<TRIPOS>MOLECULE
*****
 68 75 0 0 0
SMALL
GASTEIGER

@<TRIPOS>ATOM
      1 O          -1.9278    1.5924   -1.0822 O.2     1  UNL1        0.0000
      2 C          -1.7569    1.6005   -2.3060 C.2     1  UNL1        0.0000
      3 N          -2.8374    1.1858   -3.0437 N.am    1  UNL1        0.0000
      4 C          -4.1710    1.2668   -2.4399 C.3     1  UNL1        0.0000
      5 C          -2.6359    0.1331   -4.0418 C.3     1  UNL1        0.0000
      6 C          -2.8658   -1.2397   -3.3404 C.3     1  UNL1        0.0000
      7 C          -2.5289   -2.4454   -4.2072 C.3     1  UNL1        0.0000
      8 C          -0.3173    1.7521   -2.8305 C.ar    1  UNL1        0.0000
      9 C           0.1647    1.9058   -4.1511 C.ar    1  UNL1        0.0000
     10 C           1.5795    1.9673   -4.3798 C.ar    1  UNL1        0.0000
     11 N           0.6150    1.7034   -1.8834 N.ar    1  UNL1        0.0000
     12 C           1.9508    1.7134   -2.0315 C.ar    1  UNL1        0.0000
     13 C           2.4975    1.8541   -3.2916 C.ar    1  UNL1        0.0000
     14 C           3.9090    1.8389   -3.3965 C.ar    1  UNL1        0.0000
     15 C           4.7221    1.6443   -2.2381 C.ar    1  UNL1        0.0000
     16 C           4.1255    1.4584   -0.9676 C.ar    1  UNL1        0.0000
     17 C           2.7464    1.5192   -0.8995 C.ar    1  UNL1        0.0000
     18 N           2.1255    1.3272    0.2770 N.ar    1  UNL1        0.0000
     19 C           2.6954    0.9901    1.4396 C.ar    1  UNL1        0.0000
     20 C           1.6998    0.5709    2.4845 C.ar    1  UNL1        0.0000
     21 N           1.8887   -0.6097    3.1405 N.ar    1  UNL1        0.0000
     22 C           0.7956   -1.4174    3.3993 C.ar    1  UNL1        0.0000
     23 C           0.9780   -2.9116    3.6886 C.3     1  UNL1        0.0000
     24 C           0.6211   -3.1793    5.1625 C.3     1  UNL1        0.0000
     25 C           2.4352   -3.3632    3.4513 C.3     1  UNL1        0.0000
     26 C           0.0534   -3.7640    2.7729 C.3     1  UNL1        0.0000
     27 C          -1.4116   -3.2911    2.8554 C.3     1  UNL1        0.0000
     28 C          -1.5477   -1.8120    2.4466 C.3     1  UNL1        0.0000
     29 C          -2.9948   -1.3178    2.6564 C.3     1  UNL1        0.0000
     30 C          -1.2599   -1.6672    0.9079 C.3     1  UNL1        0.0000
     31 C          -0.5199   -0.9156    3.1487 C.ar    1  UNL1        0.0000
     32 N          -0.6525    0.3655    2.7768 N.ar    1  UNL1        0.0000
     33 N           0.4071    0.9411    2.2778 N.ar    1  UNL1        0.0000
     34 C           4.1034    0.8897    1.4470 C.ar    1  UNL1        0.0000
     35 C           4.8246    1.1640    0.2385 C.ar    1  UNL1        0.0000
     36 H          -4.4346    2.3286   -2.2548 H       1  UNL1        0.0000
     37 H          -4.9456    0.8311   -3.1050 H       1  UNL1        0.0000
     38 H          -4.2028    0.7141   -1.4724 H       1  UNL1        0.0000
     39 H          -3.3299    0.2595   -4.8977 H       1  UNL1        0.0000
     40 H          -1.6035    0.1135   -4.4264 H       1  UNL1        0.0000
     41 H          -2.2280   -1.3011   -2.4288 H       1  UNL1        0.0000
     42 H          -3.9251   -1.3340   -3.0156 H       1  UNL1        0.0000
     43 H          -3.1530   -2.4564   -5.1228 H       1  UNL1        0.0000
     44 H          -2.7279   -3.3756   -3.6279 H       1  UNL1        0.0000
     45 H          -1.4526   -2.4314   -4.4778 H       1  UNL1        0.0000
     46 H          -0.5146    1.9719   -4.9881 H       1  UNL1        0.0000
     47 H           1.9528    2.0719   -5.3853 H       1  UNL1        0.0000
     48 H           4.3828    1.9471   -4.3645 H       1  UNL1        0.0000
     49 H           5.7996    1.6026   -2.3405 H       1  UNL1        0.0000
     50 H           1.3212   -2.6387    5.8320 H       1  UNL1        0.0000
     51 H           0.6893   -4.2680    5.3789 H       1  UNL1        0.0000
     52 H          -0.4002   -2.8342    5.4188 H       1  UNL1        0.0000
     53 H           2.7340   -3.1703    2.3966 H       1  UNL1        0.0000
     54 H           2.5398   -4.4533    3.6421 H       1  UNL1        0.0000
     55 H           3.1360   -2.8170    4.1164 H       1  UNL1        0.0000
     56 H           0.3994   -3.7232    1.7173 H       1  UNL1        0.0000
     57 H           0.3994   -3.7232    1.7173 H       1  UNL1        0.0000
     58 H          -1.7926   -3.4227    3.8838 H       1  UNL1        0.0000
     59 H          -2.0511   -3.9241    2.1997 H       1  UNL1        0.0000
     60 H          -3.1101   -0.2651    2.3081 H       1  UNL1        0.0000
     61 H          -3.2832   -1.3662    3.7235 H       1  UNL1        0.0000
     62 H          -3.7015   -1.9320    2.0556 H       1  UNL1        0.0000
     63 H          -1.4398   -0.6272    0.5578 H       1  UNL1        0.0000
     64 H          -0.2017   -1.8729    0.6417 H       1  UNL1        0.0000
     65 H          -1.9110   -2.3264    0.2979 H       1  UNL1        0.0000
     66 H           4.6274    0.5850    2.3450 H       1  UNL1        0.0000
     67 H           5.8999    1.0778    0.2367 H       1  UNL1        0.0000
     68 EU         -0.1102    1.4192    0.1418 Eu      1  UNL1        0.0000
@<TRIPOS>BOND
     1     1     2    2
     2     2     3   am
     3     3     4    1
     4     3     5    1
     5     5     6    1
     6     6     7    1
     7     2     8    1
     8     8     9   ar
     9     9    10   ar
    10     8    11   ar
    11    11    12   ar
    12    12    13   ar
    13    10    13   ar
    14    13    14   ar
    15    14    15   ar
    16    15    16   ar
    17    16    17   ar
    18    12    17   ar
    19    17    18   ar
    20    18    19   ar
    21    19    20    1
    22    20    21   ar
    23    21    22   ar
    24    22    23    1
    25    23    24    1
    26    23    25    1
    27    23    26    1
    28    26    27    1
    29    27    28    1
    30    28    29    1
    31    28    30    1
    32    22    31   ar
    33    28    31    1
    34    31    32   ar
    35    32    33   ar
    36    20    33   ar
    37    19    34   ar
    38    34    35   ar
    39    16    35   ar
    40     4    36    1
    41     4    37    1
    42     4    38    1
    43     5    39    1
    44     5    40    1
    45     6    41    1
    46     6    42    1
    47     7    43    1
    48     7    44    1
    49     7    45    1
    50     9    46    1
    51    10    47    1
    52    14    48    1
    53    15    49    1
    54    24    50    1
    55    24    51    1
    56    24    52    1
    57    25    53    1
    58    25    54    1
    59    25    55    1
    60    26    56    1
    61    26    57    1
    62    27    58    1
    63    27    59    1
    64    29    60    1
    65    29    61    1
    66    29    62    1
    67    30    63    1
    68    30    64    1
    69    30    65    1
    70    34    66    1
    71    35    67    1
    72    68     1    1
    73    68    33    1
    74    68    18    1
    75    68    11    1
@<TRIPOS>MOLECULE
*****
 68 75 0 0 0
SMALL
GASTEIGER

@<TRIPOS>ATOM
      1 O          -1.9310    1.5888   -1.1469 O.2     1  UNL1        0.0000
      2 C          -1.7533    1.6220   -2.3688 C.2     1  UNL1        0.0000
      3 N          -2.8351    1.2485   -3.1279 N.am    1  UNL1        0.0000
      4 C          -4.1662    1.3171   -2.5199 C.3     1  UNL1        0.0000
      5 C          -2.6375    0.1903   -4.1225 C.3     1  UNL1        0.0000
      6 C          -2.8358   -1.1841   -3.4167 C.3     1  UNL1        0.0000
      7 C          -2.5250   -2.3842   -4.3011 C.3     1  UNL1        0.0000
      8 C          -0.3095    1.7745   -2.8801 C.ar    1  UNL1        0.0000
      9 C           0.1827    1.9469   -4.1946 C.ar    1  UNL1        0.0000
     10 C           1.5991    2.0058   -4.4084 C.ar    1  UNL1        0.0000
     11 N           0.6172    1.7112   -1.9246 N.ar    1  UNL1        0.0000
     12 C           1.9528    1.7183   -2.0641 C.ar    1  UNL1        0.0000
     13 C           2.5068    1.8716   -3.3202 C.ar    1  UNL1        0.0000
     14 C           3.9206    1.8563   -3.4161 C.ar    1  UNL1        0.0000
     15 C           4.7256    1.6452   -2.2537 C.ar    1  UNL1        0.0000
     16 C           4.1215    1.4451   -0.9881 C.ar    1  UNL1        0.0000
     17 C           2.7377    1.5103   -0.9259 C.ar    1  UNL1        0.0000
     18 N           2.1083    1.3041    0.2421 N.ar    1  UNL1        0.0000
     19 C           2.6773    0.9569    1.4071 C.ar    1  UNL1        0.0000
     20 C           1.6841    0.5337    2.4453 C.ar    1  UNL1        0.0000
     21 N           1.8842   -0.6232    3.1333 N.ar    1  UNL1        0.0000
     22 C           0.7975   -1.4281    3.4256 C.ar    1  UNL1        0.0000
     23 C           0.9975   -2.9109    3.7478 C.3     1  UNL1        0.0000
     24 C           0.6604   -3.1498    5.2304 C.3     1  UNL1        0.0000
     25 C           2.4593   -3.3543    3.5060 C.3     1  UNL1        0.0000
     26 C           0.0754   -3.7873    2.8540 C.3     1  UNL1        0.0000
     27 C          -1.3962   -3.3395    2.9560 C.3     1  UNL1        0.0000
     28 C          -1.5699   -1.8692    2.5277 C.3     1  UNL1        0.0000
     29 C          -3.0090   -1.3875    2.7953 C.3     1  UNL1        0.0000
     30 C          -1.3498   -1.7534    0.9747 C.3     1  UNL1        0.0000
     31 C          -0.5241   -0.9420    3.1595 C.ar    1  UNL1        0.0000
     32 N          -0.6680    0.3172    2.7342 N.ar    1  UNL1        0.0000
     33 N           0.3859    0.8856    2.2229 N.ar    1  UNL1        0.0000
     34 C           4.0872    0.8578    1.4210 C.ar    1  UNL1        0.0000
     35 C           4.8122    1.1385    0.2196 C.ar    1  UNL1        0.0000
     36 H          -4.4112    2.3699   -2.2676 H       1  UNL1        0.0000
     37 H          -4.9478    0.9386   -3.2124 H       1  UNL1        0.0000
     38 H          -4.2113    0.7063   -1.5885 H       1  UNL1        0.0000
     39 H          -3.3587    0.2991   -4.9588 H       1  UNL1        0.0000
     40 H          -1.6191    0.1915   -4.5413 H       1  UNL1        0.0000
     41 H          -2.1705   -1.2457   -2.5255 H       1  UNL1        0.0000
     42 H          -3.8852   -1.2840   -3.0610 H       1  UNL1        0.0000
     43 H          -3.1797   -2.3912   -5.1955 H       1  UNL1        0.0000
     44 H          -2.7030   -3.3185   -3.7220 H       1  UNL1        0.0000
     45 H          -1.4589   -2.3651   -4.6085 H       1  UNL1        0.0000
     46 H          -0.4915    2.0292   -5.0348 H       1  UNL1        0.0000
     47 H           1.9774    2.1242   -5.4146 H       1  UNL1        0.0000
     48 H           4.3984    1.9750   -4.3796 H       1  UNL1        0.0000
     49 H           5.8029    1.6042   -2.3518 H       1  UNL1        0.0000
     50 H           1.3638   -2.5891    5.8792 H       1  UNL1        0.0000
     51 H           0.7393   -4.2330    5.4695 H       1  UNL1        0.0000
     52 H          -0.3597   -2.8051    5.4905 H       1  UNL1        0.0000
     53 H           2.7488   -3.1815    2.4452 H       1  UNL1        0.0000
     54 H           2.5780   -4.4390    3.7196 H       1  UNL1        0.0000
     55 H           3.1607   -2.7871    4.1534 H       1  UNL1        0.0000
     56 H           0.4065   -3.7536    1.7930 H       1  UNL1        0.0000
     57 H           0.4065   -3.7536    1.7930 H       1  UNL1        0.0000
     58 H          -1.7509   -3.4656    3.9933 H       1  UNL1        0.0000
     59 H          -2.0375   -3.9950    2.3236 H       1  UNL1        0.0000
     60 H          -3.1504   -0.3426    2.4351 H       1  UNL1        0.0000
     61 H          -3.2446   -1.4200    3.8757 H       1  UNL1        0.0000
     62 H          -3.7352   -2.0209    2.2395 H       1  UNL1        0.0000
     63 H          -1.5496   -0.7211    0.6095 H       1  UNL1        0.0000
     64 H          -0.3035   -1.9620    0.6665 H       1  UNL1        0.0000
     65 H          -2.0240   -2.4268    0.4052 H       1  UNL1        0.0000
     66 H           4.6098    0.5526    2.3191 H       1  UNL1        0.0000
     67 H           5.8927    1.0590    0.2204 H       1  UNL1        0.0000
     68 EU         -0.1261    1.3958    0.0924 Eu      1  UNL1        0.0000
@<TRIPOS>BOND
     1     1     2    2
     2     2     3   am
     3     3     4    1
     4     3     5    1
     5     5     6    1
     6     6     7    1
     7     2     8    1
     8     8     9   ar
     9     9    10   ar
    10     8    11   ar
    11    11    12   ar
    12    12    13   ar
    13    10    13   ar
    14    13    14   ar
    15    14    15   ar
    16    15    16   ar
    17    16    17   ar
    18    12    17   ar
    19    17    18   ar
    20    18    19   ar
    21    19    20    1
    22    20    21   ar
    23    21    22   ar
    24    22    23    1
    25    23    24    1
    26    23    25    1
    27    23    26    1
    28    26    27    1
    29    27    28    1
    30    28    29    1
    31    28    30    1
    32    22    31   ar
    33    28    31    1
    34    31    32   ar
    35    32    33   ar
    36    20    33   ar
    37    19    34   ar
    38    34    35   ar
    39    16    35   ar
    40     4    36    1
    41     4    37    1
    42     4    38    1
    43     5    39    1
    44     5    40    1
    45     6    41    1
    46     6    42    1
    47     7    43    1
    48     7    44    1
    49     7    45    1
    50     9    46    1
    51    10    47    1
    52    14    48    1
    53    15    49    1
    54    24    50    1
    55    24    51    1
    56    24    52    1
    57    25    53    1
    58    25    54    1
    59    25    55    1
    60    26    56    1
    61    26    57    1
    62    27    58    1
    63    27    59    1
    64    29    60    1
    65    29    61    1
    66    29    62    1
    67    30    63    1
    68    30    64    1
    69    30    65    1
    70    34    66    1
    71    35    67    1
    72    68     1    1
    73    68    33    1
    74    68    18    1
    75    68    11    1
@<TRIPOS>MOLECULE
*****
 68 75 0 0 0
SMALL
GASTEIGER

@<TRIPOS>ATOM
      1 O          -1.9442    1.5899   -1.2143 O.2     1  UNL1        0.0000
      2 C          -1.7549    1.6531   -2.4316 C.2     1  UNL1        0.0000
      3 N          -2.8353    1.3240   -3.2195 N.am    1  UNL1        0.0000
      4 C          -4.1652    1.3754   -2.6056 C.3     1  UNL1        0.0000
      5 C          -2.6382    0.2545   -4.2036 C.3     1  UNL1        0.0000
      6 C          -2.7968   -1.1216   -3.4908 C.3     1  UNL1        0.0000
      7 C          -2.5144   -2.3155   -4.3938 C.3     1  UNL1        0.0000
      8 C          -0.3061    1.8042   -2.9250 C.ar    1  UNL1        0.0000
      9 C           0.1962    1.9976   -4.2333 C.ar    1  UNL1        0.0000
     10 C           1.6111    2.0556   -4.4369 C.ar    1  UNL1        0.0000
     11 N           0.6121    1.7205   -1.9617 N.ar    1  UNL1        0.0000
     12 C           1.9486    1.7287   -2.0886 C.ar    1  UNL1        0.0000
     13 C           2.5090    1.8976   -3.3453 C.ar    1  UNL1        0.0000
     14 C           3.9256    1.8800   -3.4334 C.ar    1  UNL1        0.0000
     15 C           4.7236    1.6523   -2.2707 C.ar    1  UNL1        0.0000
     16 C           4.1133    1.4404   -1.0112 C.ar    1  UNL1        0.0000
     17 C           2.7284    1.5053   -0.9543 C.ar    1  UNL1        0.0000
     18 N           2.0914    1.2833    0.2046 N.ar    1  UNL1        0.0000
     19 C           2.6619    0.9261    1.3659 C.ar    1  UNL1        0.0000
     20 C           1.6637    0.4969    2.3979 C.ar    1  UNL1        0.0000
     21 N           1.8782   -0.6347    3.1283 N.ar    1  UNL1        0.0000
     22 C           0.7990   -1.4376    3.4421 C.ar    1  UNL1        0.0000
     23 C           1.0211   -2.9116    3.8078 C.3     1  UNL1        0.0000
     24 C           0.7025   -3.1145    5.3007 C.3     1  UNL1        0.0000
     25 C           2.4831   -3.3461    3.5617 C.3     1  UNL1        0.0000
     26 C           0.0981   -3.8181    2.9436 C.3     1  UNL1        0.0000
     27 C          -1.3784   -3.3925    3.0650 C.3     1  UNL1        0.0000
     28 C          -1.5895   -1.9347    2.6097 C.3     1  UNL1        0.0000
     29 C          -3.0181   -1.4583    2.9393 C.3     1  UNL1        0.0000
     30 C          -1.4483   -1.8599    1.0452 C.3     1  UNL1        0.0000
     31 C          -0.5211   -0.9806    3.1550 C.ar    1  UNL1        0.0000
     32 N          -0.6814    0.2569    2.6832 N.ar    1  UNL1        0.0000
     33 N           0.3695    0.8327    2.1639 N.ar    1  UNL1        0.0000
     34 C           4.0675    0.8283    1.3906 C.ar    1  UNL1        0.0000
     35 C           4.7984    1.1210    0.1967 C.ar    1  UNL1        0.0000
     36 H          -4.3785    2.4061   -2.2526 H       1  UNL1        0.0000
     37 H          -4.9535    1.0900   -3.3334 H       1  UNL1        0.0000
     38 H          -4.2306    0.6840   -1.7335 H       1  UNL1        0.0000
     39 H          -3.3867    0.3387   -5.0183 H       1  UNL1        0.0000
     40 H          -1.6364    0.2806   -4.6596 H       1  UNL1        0.0000
     41 H          -2.1002   -1.1805   -2.6247 H       1  UNL1        0.0000
     42 H          -3.8332   -1.2306   -3.1022 H       1  UNL1        0.0000
     43 H          -3.2032   -2.3203   -5.2628 H       1  UNL1        0.0000
     44 H          -2.6680   -3.2542   -3.8148 H       1  UNL1        0.0000
     45 H          -1.4615   -2.2906   -4.7430 H       1  UNL1        0.0000
     46 H          -0.4724    2.0991   -5.0794 H       1  UNL1        0.0000
     47 H           1.9975    2.1856   -5.4389 H       1  UNL1        0.0000
     48 H           4.4094    2.0100   -4.3924 H       1  UNL1        0.0000
     49 H           5.8018    1.6109   -2.3629 H       1  UNL1        0.0000
     50 H           1.4092   -2.5324    5.9269 H       1  UNL1        0.0000
     51 H           0.7931   -4.1906    5.5661 H       1  UNL1        0.0000
     52 H          -0.3164   -2.7703    5.5665 H       1  UNL1        0.0000
     53 H           2.7599   -3.1972    2.4940 H       1  UNL1        0.0000
     54 H           2.6142   -4.4235    3.8019 H       1  UNL1        0.0000
     55 H           3.1850   -2.7560    4.1875 H       1  UNL1        0.0000
     56 H           0.4101   -3.7913    1.8761 H       1  UNL1        0.0000
     57 H           0.4101   -3.7913    1.8761 H       1  UNL1        0.0000
     58 H          -1.7077   -3.5035    4.1127 H       1  UNL1        0.0000
     59 H          -2.0247   -4.0716    2.4648 H       1  UNL1        0.0000
     60 H          -3.1883   -0.4232    2.5632 H       1  UNL1        0.0000
     61 H          -3.1976   -1.4671    4.0315 H       1  UNL1        0.0000
     62 H          -3.7656   -2.1121    2.4385 H       1  UNL1        0.0000
     63 H          -1.6706   -0.8378    0.6610 H       1  UNL1        0.0000
     64 H          -0.4164   -2.0755    0.6958 H       1  UNL1        0.0000
     65 H          -2.1452   -2.5509    0.5296 H       1  UNL1        0.0000
     66 H           4.5865    0.5170    2.2887 H       1  UNL1        0.0000
     67 H           5.8778    1.0421    0.2005 H       1  UNL1        0.0000
     68 EU         -0.1520    1.3740    0.0457 Eu      1  UNL1        0.0000
@<TRIPOS>BOND
     1     1     2    2
     2     2     3   am
     3     3     4    1
     4     3     5    1
     5     5     6    1
     6     6     7    1
     7     2     8    1
     8     8     9   ar
     9     9    10   ar
    10     8    11   ar
    11    11    12   ar
    12    12    13   ar
    13    10    13   ar
    14    13    14   ar
    15    14    15   ar
    16    15    16   ar
    17    16    17   ar
    18    12    17   ar
    19    17    18   ar
    20    18    19   ar
    21    19    20    1
    22    20    21   ar
    23    21    22   ar
    24    22    23    1
    25    23    24    1
    26    23    25    1
    27    23    26    1
    28    26    27    1
    29    27    28    1
    30    28    29    1
    31    28    30    1
    32    22    31   ar
    33    28    31    1
    34    31    32   ar
    35    32    33   ar
    36    20    33   ar
    37    19    34   ar
    38    34    35   ar
    39    16    35   ar
    40     4    36    1
    41     4    37    1
    42     4    38    1
    43     5    39    1
    44     5    40    1
    45     6    41    1
    46     6    42    1
    47     7    43    1
    48     7    44    1
    49     7    45    1
    50     9    46    1
    51    10    47    1
    52    14    48    1
    53    15    49    1
    54    24    50    1
    55    24    51    1
    56    24    52    1
    57    25    53    1
    58    25    54    1
    59    25    55    1
    60    26    56    1
    61    26    57    1
    62    27    58    1
    63    27    59    1
    64    29    60    1
    65    29    61    1
    66    29    62    1
    67    30    63    1
    68    30    64    1
    69    30    65    1
    70    34    66    1
    71    35    67    1
    72    68     1    1
    73    68    33    1
    74    68    18    1
    75    68    11    1
@<TRIPOS>MOLECULE
*****
 68 75 0 0 0
SMALL
GASTEIGER

@<TRIPOS>ATOM
      1 O          -1.9481    1.5899   -1.2804 O.2     1  UNL1        0.0000
      2 C          -1.7544    1.6800   -2.4988 C.2     1  UNL1        0.0000
      3 N          -2.8320    1.3897   -3.3019 N.am    1  UNL1        0.0000
      4 C          -4.1601    1.4321   -2.6844 C.3     1  UNL1        0.0000
      5 C          -2.6382    0.3108   -4.2788 C.3     1  UNL1        0.0000
      6 C          -2.7595   -1.0655   -3.5576 C.3     1  UNL1        0.0000
      7 C          -2.4992   -2.2561   -4.4713 C.3     1  UNL1        0.0000
      8 C          -0.3040    1.8335   -2.9786 C.ar    1  UNL1        0.0000
      9 C           0.2099    2.0427   -4.2786 C.ar    1  UNL1        0.0000
     10 C           1.6282    2.0973   -4.4701 C.ar    1  UNL1        0.0000
     11 N           0.6073    1.7303   -2.0096 N.ar    1  UNL1        0.0000
     12 C           1.9412    1.7347   -2.1272 C.ar    1  UNL1        0.0000
     13 C           2.5186    1.9271   -3.3743 C.ar    1  UNL1        0.0000
     14 C           3.9321    1.9089   -3.4548 C.ar    1  UNL1        0.0000
     15 C           4.7208    1.6689   -2.2860 C.ar    1  UNL1        0.0000
     16 C           4.1014    1.4410   -1.0356 C.ar    1  UNL1        0.0000
     17 C           2.7151    1.5002   -0.9899 C.ar    1  UNL1        0.0000
     18 N           2.0726    1.2624    0.1661 N.ar    1  UNL1        0.0000
     19 C           2.6414    0.8946    1.3257 C.ar    1  UNL1        0.0000
     20 C           1.6424    0.4548    2.3525 C.ar    1  UNL1        0.0000
     21 N           1.8686   -0.6505    3.1172 N.ar    1  UNL1        0.0000
     22 C           0.8010   -1.4589    3.4617 C.ar    1  UNL1        0.0000
     23 C           1.0377   -2.9142    3.8618 C.3     1  UNL1        0.0000
     24 C           0.7403   -3.0807    5.3637 C.3     1  UNL1        0.0000
     25 C           2.5010   -3.3413    3.6088 C.3     1  UNL1        0.0000
     26 C           0.1132   -3.8467    3.0279 C.3     1  UNL1        0.0000
     27 C          -1.3665   -3.4384    3.1680 C.3     1  UNL1        0.0000
     28 C          -1.6093   -1.9937    2.6853 C.3     1  UNL1        0.0000
     29 C          -3.0236   -1.5162    3.0669 C.3     1  UNL1        0.0000
     30 C          -1.5360   -1.9620    1.1145 C.3     1  UNL1        0.0000
     31 C          -0.5259   -1.0210    3.1528 C.ar    1  UNL1        0.0000
     32 N          -0.6972    0.1976    2.6337 N.ar    1  UNL1        0.0000
     33 N           0.3475    0.7739    2.1061 N.ar    1  UNL1        0.0000
     34 C           4.0467    0.7986    1.3557 C.ar    1  UNL1        0.0000
     35 C           4.7825    1.1056    0.1681 C.ar    1  UNL1        0.0000
     36 H          -4.3414    2.4339   -2.2404 H       1  UNL1        0.0000
     37 H          -4.9552    1.2387   -3.4347 H       1  UNL1        0.0000
     38 H          -4.2497    0.6750   -1.8713 H       1  UNL1        0.0000
     39 H          -3.4099    0.3728   -5.0742 H       1  UNL1        0.0000
     40 H          -1.6518    0.3562   -4.7658 H       1  UNL1        0.0000
     41 H          -2.0359   -1.1186   -2.7137 H       1  UNL1        0.0000
     42 H          -3.7824   -1.1866   -3.1386 H       1  UNL1        0.0000
     43 H          -3.2175   -2.2628   -5.3164 H       1  UNL1        0.0000
     44 H          -2.6282   -3.1971   -3.8903 H       1  UNL1        0.0000
     45 H          -1.4594   -2.2229   -4.8565 H       1  UNL1        0.0000
     46 H          -0.4511    2.1600   -5.1256 H       1  UNL1        0.0000
     47 H           2.0202    2.2449   -5.4673 H       1  UNL1        0.0000
     48 H           4.4220    2.0507   -4.4093 H       1  UNL1        0.0000
     49 H           5.8009    1.6256   -2.3762 H       1  UNL1        0.0000
     50 H           1.4515   -2.4785    5.9654 H       1  UNL1        0.0000
     51 H           0.8417   -4.1491    5.6548 H       1  UNL1        0.0000
     52 H          -0.2765   -2.7350    5.6350 H       1  UNL1        0.0000
     53 H           2.7648   -3.2149    2.5349 H       1  UNL1        0.0000
     54 H           2.6458   -4.4110    3.8734 H       1  UNL1        0.0000
     55 H           3.2046   -2.7296    4.2121 H       1  UNL1        0.0000
     56 H           0.4079   -3.8324    1.9551 H       1  UNL1        0.0000
     57 H           0.4079   -3.8324    1.9551 H       1  UNL1        0.0000
     58 H          -1.6711   -3.5314    4.2242 H       1  UNL1        0.0000
     59 H          -2.0170   -4.1391    2.5981 H       1  UNL1        0.0000
     60 H          -3.2159   -0.4915    2.6734 H       1  UNL1        0.0000
     61 H          -3.1525   -1.4979    4.1662 H       1  UNL1        0.0000
     62 H          -3.7886   -2.1867    2.6177 H       1  UNL1        0.0000
     63 H          -1.7784   -0.9514    0.7107 H       1  UNL1        0.0000
     64 H          -0.5183   -2.1862    0.7298 H       1  UNL1        0.0000
     65 H          -2.2514   -2.6684    0.6484 H       1  UNL1        0.0000
     66 H           4.5617    0.4795    2.2540 H       1  UNL1        0.0000
     67 H           5.8621    1.0288    0.1793 H       1  UNL1        0.0000
     68 EU         -0.1729    1.3504   -0.0046 Eu      1  UNL1        0.0000
@<TRIPOS>BOND
     1     1     2    2
     2     2     3   am
     3     3     4    1
     4     3     5    1
     5     5     6    1
     6     6     7    1
     7     2     8    1
     8     8     9   ar
     9     9    10   ar
    10     8    11   ar
    11    11    12   ar
    12    12    13   ar
    13    10    13   ar
    14    13    14   ar
    15    14    15   ar
    16    15    16   ar
    17    16    17   ar
    18    12    17   ar
    19    17    18   ar
    20    18    19   ar
    21    19    20    1
    22    20    21   ar
    23    21    22   ar
    24    22    23    1
    25    23    24    1
    26    23    25    1
    27    23    26    1
    28    26    27    1
    29    27    28    1
    30    28    29    1
    31    28    30    1
    32    22    31   ar
    33    28    31    1
    34    31    32   ar
    35    32    33   ar
    36    20    33   ar
    37    19    34   ar
    38    34    35   ar
    39    16    35   ar
    40     4    36    1
    41     4    37    1
    42     4    38    1
    43     5    39    1
    44     5    40    1
    45     6    41    1
    46     6    42    1
    47     7    43    1
    48     7    44    1
    49     7    45    1
    50     9    46    1
    51    10    47    1
    52    14    48    1
    53    15    49    1
    54    24    50    1
    55    24    51    1
    56    24    52    1
    57    25    53    1
    58    25    54    1
    59    25    55    1
    60    26    56    1
    61    26    57    1
    62    27    58    1
    63    27    59    1
    64    29    60    1
    65    29    61    1
    66    29    62    1
    67    30    63    1
    68    30    64    1
    69    30    65    1
    70    34    66    1
    71    35    67    1
    72    68     1    1
    73    68    33    1
    74    68    18    1
    75    68    11    1
@<TRIPOS>MOLECULE
*****
 68 75 0 0 0
SMALL
GASTEIGER

@<TRIPOS>ATOM
      1 O          -1.9583    1.5822   -1.3458 O.2     1  UNL1        0.0000
      2 C          -1.7559    1.7042   -2.5613 C.2     1  UNL1        0.0000
      3 N          -2.8290    1.4488   -3.3761 N.am    1  UNL1        0.0000
      4 C          -4.1589    1.4929   -2.7618 C.3     1  UNL1        0.0000
      5 C          -2.6404    0.3704   -4.3541 C.3     1  UNL1        0.0000
      6 C          -2.7267   -1.0071   -3.6322 C.3     1  UNL1        0.0000
      7 C          -2.4812   -2.1943   -4.5541 C.3     1  UNL1        0.0000
      8 C          -0.3036    1.8606   -3.0249 C.ar    1  UNL1        0.0000
      9 C           0.2160    2.0948   -4.3187 C.ar    1  UNL1        0.0000
     10 C           1.6373    2.1483   -4.4996 C.ar    1  UNL1        0.0000
     11 N           0.6014    1.7367   -2.0514 N.ar    1  UNL1        0.0000
     12 C           1.9413    1.7492   -2.1661 C.ar    1  UNL1        0.0000
     13 C           2.5218    1.9570   -3.4040 C.ar    1  UNL1        0.0000
     14 C           3.9373    1.9434   -3.4777 C.ar    1  UNL1        0.0000
     15 C           4.7218    1.6846   -2.3131 C.ar    1  UNL1        0.0000
     16 C           4.0939    1.4363   -1.0677 C.ar    1  UNL1        0.0000
     17 C           2.7076    1.4946   -1.0248 C.ar    1  UNL1        0.0000
     18 N           2.0574    1.2372    0.1217 N.ar    1  UNL1        0.0000
     19 C           2.6189    0.8559    1.2795 C.ar    1  UNL1        0.0000
     20 C           1.6223    0.4051    2.3025 C.ar    1  UNL1        0.0000
     21 N           1.8595   -0.6718    3.1021 N.ar    1  UNL1        0.0000
     22 C           0.8011   -1.4782    3.4755 C.ar    1  UNL1        0.0000
     23 C           1.0546   -2.9177    3.9163 C.3     1  UNL1        0.0000
     24 C           0.7794   -3.0435    5.4266 C.3     1  UNL1        0.0000
     25 C           2.5180   -3.3394    3.6560 C.3     1  UNL1        0.0000
     26 C           0.1290   -3.8821    3.1185 C.3     1  UNL1        0.0000
     27 C          -1.3566   -3.4854    3.2765 C.3     1  UNL1        0.0000
     28 C          -1.6277   -2.0554    2.7602 C.3     1  UNL1        0.0000
     29 C          -3.0246   -1.5727    3.1949 C.3     1  UNL1        0.0000
     30 C          -1.6250   -2.0745    1.1893 C.3     1  UNL1        0.0000
     31 C          -0.5298   -1.0660    3.1463 C.ar    1  UNL1        0.0000
     32 N          -0.7132    0.1285    2.5797 N.ar    1  UNL1        0.0000
     33 N           0.3262    0.7067    2.0433 N.ar    1  UNL1        0.0000
     34 C           4.0276    0.7673    1.3178 C.ar    1  UNL1        0.0000
     35 C           4.7673    1.0896    0.1372 C.ar    1  UNL1        0.0000
     36 H          -4.3174    2.4718   -2.2604 H       1  UNL1        0.0000
     37 H          -4.9537    1.3674   -3.5266 H       1  UNL1        0.0000
     38 H          -4.2759    0.6966   -1.9917 H       1  UNL1        0.0000
     39 H          -3.4309    0.4205   -5.1318 H       1  UNL1        0.0000
     40 H          -1.6668    0.4338   -4.8650 H       1  UNL1        0.0000
     41 H          -1.9790   -1.0546   -2.8084 H       1  UNL1        0.0000
     42 H          -3.7356   -1.1418   -3.1841 H       1  UNL1        0.0000
     43 H          -3.2267   -2.2082   -5.3753 H       1  UNL1        0.0000
     44 H          -2.5824   -3.1362   -3.9696 H       1  UNL1        0.0000
     45 H          -1.4547   -2.1495   -4.9712 H       1  UNL1        0.0000
     46 H          -0.4369    2.2253   -5.1653 H       1  UNL1        0.0000
     47 H           2.0360    2.3128   -5.4903 H       1  UNL1        0.0000
     48 H           4.4314    2.1020   -4.4267 H       1  UNL1        0.0000
     49 H           5.8027    1.6469   -2.3909 H       1  UNL1        0.0000
     50 H           1.4950   -2.4206    6.0008 H       1  UNL1        0.0000
     51 H           0.8919   -4.1031    5.7449 H       1  UNL1        0.0000
     52 H          -0.2354   -2.6960    5.7031 H       1  UNL1        0.0000
     53 H           2.7670   -3.2395    2.5752 H       1  UNL1        0.0000
     54 H           2.6751   -4.4001    3.9467 H       1  UNL1        0.0000
     55 H           3.2240   -2.7058    4.2328 H       1  UNL1        0.0000
     56 H           0.4033   -3.8798    2.0386 H       1  UNL1        0.0000
     57 H           0.4033   -3.8798    2.0386 H       1  UNL1        0.0000
     58 H          -1.6334   -3.5568    4.3415 H       1  UNL1        0.0000
     59 H          -2.0089   -4.2090    2.7401 H       1  UNL1        0.0000
     60 H          -3.2389   -0.5606    2.7819 H       1  UNL1        0.0000
     61 H          -3.1011   -1.5232    4.2986 H       1  UNL1        0.0000
     62 H          -3.8063   -2.2593    2.8023 H       1  UNL1        0.0000
     63 H          -1.8881   -1.0780    0.7636 H       1  UNL1        0.0000
     64 H          -0.6243   -2.3123    0.7693 H       1  UNL1        0.0000
     65 H          -2.3587   -2.7962    0.7781 H       1  UNL1        0.0000
     66 H           4.5389    0.4383    2.2153 H       1  UNL1        0.0000
     67 H           5.8463    1.0165    0.1544 H       1  UNL1        0.0000
     68 EU         -0.1940    1.3189   -0.0582 Eu      1  UNL1        0.0000
@<TRIPOS>BOND
     1     1     2    2
     2     2     3   am
     3     3     4    1
     4     3     5    1
     5     5     6    1
     6     6     7    1
     7     2     8    1
     8     8     9   ar
     9     9    10   ar
    10     8    11   ar
    11    11    12   ar
    12    12    13   ar
    13    10    13   ar
    14    13    14   ar
    15    14    15   ar
    16    15    16   ar
    17    16    17   ar
    18    12    17   ar
    19    17    18   ar
    20    18    19   ar
    21    19    20    1
    22    20    21   ar
    23    21    22   ar
    24    22    23    1
    25    23    24    1
    26    23    25    1
    27    23    26    1
    28    26    27    1
    29    27    28    1
    30    28    29    1
    31    28    30    1
    32    22    31   ar
    33    28    31    1
    34    31    32   ar
    35    32    33   ar
    36    20    33   ar
    37    19    34   ar
    38    34    35   ar
    39    16    35   ar
    40     4    36    1
    41     4    37    1
    42     4    38    1
    43     5    39    1
    44     5    40    1
    45     6    41    1
    46     6    42    1
    47     7    43    1
    48     7    44    1
    49     7    45    1
    50     9    46    1
    51    10    47    1
    52    14    48    1
    53    15    49    1
    54    24    50    1
    55    24    51    1
    56    24    52    1
    57    25    53    1
    58    25    54    1
    59    25    55    1
    60    26    56    1
    61    26    57    1
    62    27    58    1
    63    27    59    1
    64    29    60    1
    65    29    61    1
    66    29    62    1
    67    30    63    1
    68    30    64    1
    69    30    65    1
    70    34    66    1
    71    35    67    1
    72    68     1    1
    73    68    33    1
    74    68    18    1
    75    68    11    1
@<TRIPOS>MOLECULE
*****
 68 75 0 0 0
SMALL
GASTEIGER

@<TRIPOS>ATOM
      1 O          -1.9619    1.5832   -1.4093 O.2     1  UNL1        0.0000
      2 C          -1.7504    1.7351   -2.6180 C.2     1  UNL1        0.0000
      3 N          -2.8211    1.5062   -3.4469 N.am    1  UNL1        0.0000
      4 C          -4.1547    1.5490   -2.8402 C.3     1  UNL1        0.0000
      5 C          -2.6341    0.4313   -4.4325 C.3     1  UNL1        0.0000
      6 C          -2.6945   -0.9505   -3.7122 C.3     1  UNL1        0.0000
      7 C          -2.4627   -2.1329   -4.6424 C.3     1  UNL1        0.0000
      8 C          -0.2933    1.8960   -3.0708 C.ar    1  UNL1        0.0000
      9 C           0.2340    2.1520   -4.3591 C.ar    1  UNL1        0.0000
     10 C           1.6545    2.2097   -4.5298 C.ar    1  UNL1        0.0000
     11 N           0.6036    1.7531   -2.0971 N.ar    1  UNL1        0.0000
     12 C           1.9398    1.7645   -2.1966 C.ar    1  UNL1        0.0000
     13 C           2.5294    1.9984   -3.4326 C.ar    1  UNL1        0.0000
     14 C           3.9455    1.9844   -3.4929 C.ar    1  UNL1        0.0000
     15 C           4.7212    1.7076   -2.3267 C.ar    1  UNL1        0.0000
     16 C           4.0868    1.4358   -1.0909 C.ar    1  UNL1        0.0000
     17 C           2.6995    1.4905   -1.0572 C.ar    1  UNL1        0.0000
     18 N           2.0447    1.2090    0.0803 N.ar    1  UNL1        0.0000
     19 C           2.6046    0.8117    1.2374 C.ar    1  UNL1        0.0000
     20 C           1.6020    0.3476    2.2451 C.ar    1  UNL1        0.0000
     21 N           1.8489   -0.7002    3.0784 N.ar    1  UNL1        0.0000
     22 C           0.7990   -1.5013    3.4820 C.ar    1  UNL1        0.0000
     23 C           1.0691   -2.9216    3.9702 C.3     1  UNL1        0.0000
     24 C           0.8186   -3.0006    5.4877 C.3     1  UNL1        0.0000
     25 C           2.5324   -3.3407    3.7010 C.3     1  UNL1        0.0000
     26 C           0.1391   -3.9120    3.2114 C.3     1  UNL1        0.0000
     27 C          -1.3428   -3.5322    3.3886 C.3     1  UNL1        0.0000
     28 C          -1.6463   -2.1207    2.8367 C.3     1  UNL1        0.0000
     29 C          -3.0197   -1.6251    3.3221 C.3     1  UNL1        0.0000
     30 C          -1.7158   -2.1985    1.2694 C.3     1  UNL1        0.0000
     31 C          -0.5347   -1.1172    3.1318 C.ar    1  UNL1        0.0000
     32 N          -0.7279    0.0494    2.5140 N.ar    1  UNL1        0.0000
     33 N           0.3058    0.6308    1.9713 N.ar    1  UNL1        0.0000
     34 C           4.0108    0.7318    1.2820 C.ar    1  UNL1        0.0000
     35 C           4.7568    1.0731    0.1131 C.ar    1  UNL1        0.0000
     36 H          -4.3000    2.5133   -2.3076 H       1  UNL1        0.0000
     37 H          -4.9447    1.4641   -3.6142 H       1  UNL1        0.0000
     38 H          -4.2894    0.7311   -2.0974 H       1  UNL1        0.0000
     39 H          -3.4365    0.4739   -5.1986 H       1  UNL1        0.0000
     40 H          -1.6690    0.5093   -4.9584 H       1  UNL1        0.0000
     41 H          -1.9274   -0.9948   -2.9072 H       1  UNL1        0.0000
     42 H          -3.6912   -1.0954   -3.2421 H       1  UNL1        0.0000
     43 H          -3.2301   -2.1527   -5.4432 H       1  UNL1        0.0000
     44 H          -2.5391   -3.0769   -4.0573 H       1  UNL1        0.0000
     45 H          -1.4483   -2.0775   -5.0879 H       1  UNL1        0.0000
     46 H          -0.4152    2.2981   -5.2079 H       1  UNL1        0.0000
     47 H           2.0598    2.3891   -5.5167 H       1  UNL1        0.0000
     48 H           4.4460    2.1590   -4.4363 H       1  UNL1        0.0000
     49 H           5.8012    1.6744   -2.4003 H       1  UNL1        0.0000
     50 H           1.5393   -2.3559    6.0313 H       1  UNL1        0.0000
     51 H           0.9430   -4.0488    5.8379 H       1  UNL1        0.0000
     52 H          -0.1935   -2.6498    5.7699 H       1  UNL1        0.0000
     53 H           2.7662   -3.2720    2.6151 H       1  UNL1        0.0000
     54 H           2.7026   -4.3906    4.0230 H       1  UNL1        0.0000
     55 H           3.2418   -2.6845    4.2489 H       1  UNL1        0.0000
     56 H           0.3953   -3.9371    2.1286 H       1  UNL1        0.0000
     57 H           0.3953   -3.9371    2.1286 H       1  UNL1        0.0000
     58 H          -1.5969   -3.5750    4.4604 H       1  UNL1        0.0000
     59 H          -2.0022   -4.2782    2.8919 H       1  UNL1        0.0000
     60 H          -3.2563   -0.6263    2.8867 H       1  UNL1        0.0000
     61 H          -3.0431   -1.5383    4.4256 H       1  UNL1        0.0000
     62 H          -3.8186   -2.3249    2.9919 H       1  UNL1        0.0000
     63 H          -1.9997   -1.2175    0.8190 H       1  UNL1        0.0000
     64 H          -0.7342   -2.4547    0.8160 H       1  UNL1        0.0000
     65 H          -2.4670   -2.9329    0.9201 H       1  UNL1        0.0000
     66 H           4.5175    0.3949    2.1783 H       1  UNL1        0.0000
     67 H           5.8353    1.0070    0.1331 H       1  UNL1        0.0000
     68 EU         -0.2075    1.2927   -0.1142 Eu      1  UNL1        0.0000
@<TRIPOS>BOND
     1     1     2    2
     2     2     3   am
     3     3     4    1
     4     3     5    1
     5     5     6    1
     6     6     7    1
     7     2     8    1
     8     8     9   ar
     9     9    10   ar
    10     8    11   ar
    11    11    12   ar
    12    12    13   ar
    13    10    13   ar
    14    13    14   ar
    15    14    15   ar
    16    15    16   ar
    17    16    17   ar
    18    12    17   ar
    19    17    18   ar
    20    18    19   ar
    21    19    20    1
    22    20    21   ar
    23    21    22   ar
    24    22    23    1
    25    23    24    1
    26    23    25    1
    27    23    26    1
    28    26    27    1
    29    27    28    1
    30    28    29    1
    31    28    30    1
    32    22    31   ar
    33    28    31    1
    34    31    32   ar
    35    32    33   ar
    36    20    33   ar
    37    19    34   ar
    38    34    35   ar
    39    16    35   ar
    40     4    36    1
    41     4    37    1
    42     4    38    1
    43     5    39    1
    44     5    40    1
    45     6    41    1
    46     6    42    1
    47     7    43    1
    48     7    44    1
    49     7    45    1
    50     9    46    1
    51    10    47    1
    52    14    48    1
    53    15    49    1
    54    24    50    1
    55    24    51    1
    56    24    52    1
    57    25    53    1
    58    25    54    1
    59    25    55    1
    60    26    56    1
    61    26    57    1
    62    27    58    1
    63    27    59    1
    64    29    60    1
    65    29    61    1
    66    29    62    1
    67    30    63    1
    68    30    64    1
    69    30    65    1
    70    34    66    1
    71    35    67    1
    72    68     1    1
    73    68    33    1
    74    68    18    1
    75    68    11    1
@<TRIPOS>MOLECULE
*****
 68 75 0 0 0
SMALL
GASTEIGER

@<TRIPOS>ATOM
      1 O          -1.9713    1.5813   -1.4615 O.2     1  UNL1        0.0000
      2 C          -1.7534    1.7586   -2.6638 C.2     1  UNL1        0.0000
      3 N          -2.8185    1.5519   -3.5058 N.am    1  UNL1        0.0000
      4 C          -4.1553    1.5968   -2.9065 C.3     1  UNL1        0.0000
      5 C          -2.6291    0.4854   -4.4973 C.3     1  UNL1        0.0000
      6 C          -2.6709   -0.9008   -3.7834 C.3     1  UNL1        0.0000
      7 C          -2.4473   -2.0794   -4.7219 C.3     1  UNL1        0.0000
      8 C          -0.2919    1.9250   -3.1044 C.ar    1  UNL1        0.0000
      9 C           0.2401    2.2001   -4.3862 C.ar    1  UNL1        0.0000
     10 C           1.6612    2.2575   -4.5498 C.ar    1  UNL1        0.0000
     11 N           0.5968    1.7640   -2.1248 N.ar    1  UNL1        0.0000
     12 C           1.9364    1.7809   -2.2253 C.ar    1  UNL1        0.0000
     13 C           2.5311    2.0309   -3.4492 C.ar    1  UNL1        0.0000
     14 C           3.9455    2.0178   -3.5047 C.ar    1  UNL1        0.0000
     15 C           4.7149    1.7257   -2.3390 C.ar    1  UNL1        0.0000
     16 C           4.0764    1.4380   -1.1107 C.ar    1  UNL1        0.0000
     17 C           2.6883    1.4887   -1.0821 C.ar    1  UNL1        0.0000
     18 N           2.0274    1.1938    0.0491 N.ar    1  UNL1        0.0000
     19 C           2.5857    0.7768    1.2021 C.ar    1  UNL1        0.0000
     20 C           1.5841    0.3011    2.2017 C.ar    1  UNL1        0.0000
     21 N           1.8403   -0.7246    3.0582 N.ar    1  UNL1        0.0000
     22 C           0.7976   -1.5225    3.4866 C.ar    1  UNL1        0.0000
     23 C           1.0812   -2.9250    4.0135 C.3     1  UNL1        0.0000
     24 C           0.8521   -2.9613    5.5365 C.3     1  UNL1        0.0000
     25 C           2.5432   -3.3441    3.7371 C.3     1  UNL1        0.0000
     26 C           0.1468   -3.9402    3.2939 C.3     1  UNL1        0.0000
     27 C          -1.3353   -3.5662    3.4861 C.3     1  UNL1        0.0000
     28 C          -1.6609   -2.1730    2.9027 C.3     1  UNL1        0.0000
     29 C          -3.0149   -1.6622    3.4260 C.3     1  UNL1        0.0000
     30 C          -1.7888   -2.3013    1.3432 C.3     1  UNL1        0.0000
     31 C          -0.5389   -1.1615    3.1257 C.ar    1  UNL1        0.0000
     32 N          -0.7423   -0.0168    2.4682 N.ar    1  UNL1        0.0000
     33 N           0.2866    0.5695    1.9190 N.ar    1  UNL1        0.0000
     34 C           3.9921    0.7036    1.2505 C.ar    1  UNL1        0.0000
     35 C           4.7416    1.0600    0.0878 C.ar    1  UNL1        0.0000
     36 H          -4.2945    2.5522   -2.3560 H       1  UNL1        0.0000
     37 H          -4.9413    1.5363   -3.6876 H       1  UNL1        0.0000
     38 H          -4.3040    0.7667   -2.1803 H       1  UNL1        0.0000
     39 H          -3.4366    0.5247   -5.2587 H       1  UNL1        0.0000
     40 H          -1.6685    0.5746   -5.0299 H       1  UNL1        0.0000
     41 H          -1.8905   -0.9444   -2.9907 H       1  UNL1        0.0000
     42 H          -3.6583   -1.0532   -3.2976 H       1  UNL1        0.0000
     43 H          -3.2296   -2.1017   -5.5066 H       1  UNL1        0.0000
     44 H          -2.5059   -3.0250   -4.1364 H       1  UNL1        0.0000
     45 H          -1.4415   -2.0152   -5.1841 H       1  UNL1        0.0000
     46 H          -0.4049    2.3610   -5.2373 H       1  UNL1        0.0000
     47 H           2.0723    2.4527   -5.5314 H       1  UNL1        0.0000
     48 H           4.4509    2.2071   -4.4434 H       1  UNL1        0.0000
     49 H           5.7953    1.6965   -2.4094 H       1  UNL1        0.0000
     50 H           1.5775   -2.2986    6.0516 H       1  UNL1        0.0000
     51 H           0.9860   -3.9986    5.9145 H       1  UNL1        0.0000
     52 H          -0.1571   -2.6061    5.8231 H       1  UNL1        0.0000
     53 H           2.7629   -3.3042    2.6468 H       1  UNL1        0.0000
     54 H           2.7236   -4.3833    4.0864 H       1  UNL1        0.0000
     55 H           3.2560   -2.6691    4.2574 H       1  UNL1        0.0000
     56 H           0.3855   -3.9881    2.2074 H       1  UNL1        0.0000
     57 H           0.3855   -3.9881    2.2074 H       1  UNL1        0.0000
     58 H          -1.5667   -3.5844    4.5643 H       1  UNL1        0.0000
     59 H          -1.9977   -4.3327    3.0256 H       1  UNL1        0.0000
     60 H          -3.2678   -0.6778    2.9707 H       1  UNL1        0.0000
     61 H          -2.9925   -1.5427    4.5271 H       1  UNL1        0.0000
     62 H          -3.8245   -2.3731    3.1509 H       1  UNL1        0.0000
     63 H          -2.0880   -1.3360    0.8722 H       1  UNL1        0.0000
     64 H          -0.8250   -2.5789    0.8646 H       1  UNL1        0.0000
     65 H          -2.5543   -3.0460    1.0471 H       1  UNL1        0.0000
     66 H           4.4969    0.3598    2.1450 H       1  UNL1        0.0000
     67 H           5.8211    0.9978    0.1131 H       1  UNL1        0.0000
     68 EU         -0.2279    1.2656   -0.1565 Eu      1  UNL1        0.0000
@<TRIPOS>BOND
     1     1     2    2
     2     2     3   am
     3     3     4    1
     4     3     5    1
     5     5     6    1
     6     6     7    1
     7     2     8    1
     8     8     9   ar
     9     9    10   ar
    10     8    11   ar
    11    11    12   ar
    12    12    13   ar
    13    10    13   ar
    14    13    14   ar
    15    14    15   ar
    16    15    16   ar
    17    16    17   ar
    18    12    17   ar
    19    17    18   ar
    20    18    19   ar
    21    19    20    1
    22    20    21   ar
    23    21    22   ar
    24    22    23    1
    25    23    24    1
    26    23    25    1
    27    23    26    1
    28    26    27    1
    29    27    28    1
    30    28    29    1
    31    28    30    1
    32    22    31   ar
    33    28    31    1
    34    31    32   ar
    35    32    33   ar
    36    20    33   ar
    37    19    34   ar
    38    34    35   ar
    39    16    35   ar
    40     4    36    1
    41     4    37    1
    42     4    38    1
    43     5    39    1
    44     5    40    1
    45     6    41    1
    46     6    42    1
    47     7    43    1
    48     7    44    1
    49     7    45    1
    50     9    46    1
    51    10    47    1
    52    14    48    1
    53    15    49    1
    54    24    50    1
    55    24    51    1
    56    24    52    1
    57    25    53    1
    58    25    54    1
    59    25    55    1
    60    26    56    1
    61    26    57    1
    62    27    58    1
    63    27    59    1
    64    29    60    1
    65    29    61    1
    66    29    62    1
    67    30    63    1
    68    30    64    1
    69    30    65    1
    70    34    66    1
    71    35    67    1
    72    68     1    1
    73    68    33    1
    74    68    18    1
    75    68    11    1
@<TRIPOS>MOLECULE
*****
 68 75 0 0 0
SMALL
GASTEIGER

@<TRIPOS>ATOM
      1 O          -1.9759    1.5760   -1.5190 O.2     1  UNL1        0.0000
      2 C          -1.7507    1.7782   -2.7161 C.2     1  UNL1        0.0000
      3 N          -2.8103    1.5962   -3.5676 N.am    1  UNL1        0.0000
      4 C          -4.1507    1.6414   -2.9761 C.3     1  UNL1        0.0000
      5 C          -2.6199    0.5384   -4.5662 C.3     1  UNL1        0.0000
      6 C          -2.6489   -0.8529   -3.8633 C.3     1  UNL1        0.0000
      7 C          -2.4309   -2.0230   -4.8110 C.3     1  UNL1        0.0000
      8 C          -0.2900    1.9478   -3.1458 C.ar    1  UNL1        0.0000
      9 C           0.2514    2.2482   -4.4171 C.ar    1  UNL1        0.0000
     10 C           1.6729    2.3071   -4.5725 C.ar    1  UNL1        0.0000
     11 N           0.5943    1.7688   -2.1625 N.ar    1  UNL1        0.0000
     12 C           1.9342    1.7861   -2.2558 C.ar    1  UNL1        0.0000
     13 C           2.5354    2.0601   -3.4703 C.ar    1  UNL1        0.0000
     14 C           3.9506    2.0523   -3.5201 C.ar    1  UNL1        0.0000
     15 C           4.7150    1.7457   -2.3558 C.ar    1  UNL1        0.0000
     16 C           4.0700    1.4363   -1.1344 C.ar    1  UNL1        0.0000
     17 C           2.6812    1.4790   -1.1140 C.ar    1  UNL1        0.0000
     18 N           2.0135    1.1589    0.0084 N.ar    1  UNL1        0.0000
     19 C           2.5681    0.7337    1.1575 C.ar    1  UNL1        0.0000
     20 C           1.5655    0.2436    2.1508 C.ar    1  UNL1        0.0000
     21 N           1.8310   -0.7584    3.0315 N.ar    1  UNL1        0.0000
     22 C           0.7977   -1.5465    3.4860 C.ar    1  UNL1        0.0000
     23 C           1.0943   -2.9298    4.0608 C.3     1  UNL1        0.0000
     24 C           0.8889   -2.9168    5.5864 C.3     1  UNL1        0.0000
     25 C           2.5545   -3.3515    3.7754 C.3     1  UNL1        0.0000
     26 C           0.1550   -3.9726    3.3831 C.3     1  UNL1        0.0000
     27 C          -1.3242   -3.6013    3.5922 C.3     1  UNL1        0.0000
     28 C          -1.6732   -2.2285    2.9730 C.3     1  UNL1        0.0000
     29 C          -3.0039   -1.6968    3.5330 C.3     1  UNL1        0.0000
     30 C          -1.8609   -2.4120    1.4264 C.3     1  UNL1        0.0000
     31 C          -0.5449   -1.2117    3.1167 C.ar    1  UNL1        0.0000
     32 N          -0.7557   -0.0935    2.4188 N.ar    1  UNL1        0.0000
     33 N           0.2673    0.4973    1.8614 N.ar    1  UNL1        0.0000
     34 C           3.9739    0.6672    1.2141 C.ar    1  UNL1        0.0000
     35 C           4.7275    1.0469    0.0631 C.ar    1  UNL1        0.0000
     36 H          -4.2842    2.5885   -2.4104 H       1  UNL1        0.0000
     37 H          -4.9307    1.6035   -3.7645 H       1  UNL1        0.0000
     38 H          -4.3118    0.8004   -2.2665 H       1  UNL1        0.0000
     39 H          -3.4311    0.5805   -5.3254 H       1  UNL1        0.0000
     40 H          -1.6620    0.6391   -5.1049 H       1  UNL1        0.0000
     41 H          -1.8592   -0.8989   -3.0807 H       1  UNL1        0.0000
     42 H          -3.6294   -1.0128   -3.3663 H       1  UNL1        0.0000
     43 H          -3.2250   -2.0467   -5.5848 H       1  UNL1        0.0000
     44 H          -2.4759   -2.9721   -4.2304 H       1  UNL1        0.0000
     45 H          -1.4327   -1.9507   -5.2884 H       1  UNL1        0.0000
     46 H          -0.3890    2.4287   -5.2686 H       1  UNL1        0.0000
     47 H           2.0895    2.5233   -5.5474 H       1  UNL1        0.0000
     48 H           4.4601    2.2591   -4.4519 H       1  UNL1        0.0000
     49 H           5.7947    1.7208   -2.4187 H       1  UNL1        0.0000
     50 H           1.6189   -2.2351    6.0674 H       1  UNL1        0.0000
     51 H           1.0326   -3.9410    5.9958 H       1  UNL1        0.0000
     52 H          -0.1173   -2.5557    5.8762 H       1  UNL1        0.0000
     53 H           2.7586   -3.3447    2.6807 H       1  UNL1        0.0000
     54 H           2.7460   -4.3779    4.1544 H       1  UNL1        0.0000
     55 H           3.2709   -2.6565    4.2630 H       1  UNL1        0.0000
     56 H           0.3741   -4.0473    2.2950 H       1  UNL1        0.0000
     57 H           0.3741   -4.0473    2.2950 H       1  UNL1        0.0000
     58 H          -1.5346   -3.5890    4.6757 H       1  UNL1        0.0000
     59 H          -1.9931   -4.3857    3.1711 H       1  UNL1        0.0000
     60 H          -3.2740   -0.7275    3.0549 H       1  UNL1        0.0000
     61 H          -2.9360   -1.5395    4.6275 H       1  UNL1        0.0000
     62 H          -3.8247   -2.4149    3.3163 H       1  UNL1        0.0000
     63 H          -2.1753   -1.4626    0.9327 H       1  UNL1        0.0000
     64 H          -0.9167   -2.7135    0.9237 H       1  UNL1        0.0000
     65 H          -2.6401   -3.1627    1.1877 H       1  UNL1        0.0000
     66 H           4.4743    0.3138    2.1078 H       1  UNL1        0.0000
     67 H           5.8086    0.9869    0.0949 H       1  UNL1        0.0000
     68 EU         -0.2442    1.2331   -0.2038 Eu      1  UNL1        0.0000
@<TRIPOS>BOND
     1     1     2    2
     2     2     3   am
     3     3     4    1
     4     3     5    1
     5     5     6    1
     6     6     7    1
     7     2     8    1
     8     8     9   ar
     9     9    10   ar
    10     8    11   ar
    11    11    12   ar
    12    12    13   ar
    13    10    13   ar
    14    13    14   ar
    15    14    15   ar
    16    15    16   ar
    17    16    17   ar
    18    12    17   ar
    19    17    18   ar
    20    18    19   ar
    21    19    20    1
    22    20    21   ar
    23    21    22   ar
    24    22    23    1
    25    23    24    1
    26    23    25    1
    27    23    26    1
    28    26    27    1
    29    27    28    1
    30    28    29    1
    31    28    30    1
    32    22    31   ar
    33    28    31    1
    34    31    32   ar
    35    32    33   ar
    36    20    33   ar
    37    19    34   ar
    38    34    35   ar
    39    16    35   ar
    40     4    36    1
    41     4    37    1
    42     4    38    1
    43     5    39    1
    44     5    40    1
    45     6    41    1
    46     6    42    1
    47     7    43    1
    48     7    44    1
    49     7    45    1
    50     9    46    1
    51    10    47    1
    52    14    48    1
    53    15    49    1
    54    24    50    1
    55    24    51    1
    56    24    52    1
    57    25    53    1
    58    25    54    1
    59    25    55    1
    60    26    56    1
    61    26    57    1
    62    27    58    1
    63    27    59    1
    64    29    60    1
    65    29    61    1
    66    29    62    1
    67    30    63    1
    68    30    64    1
    69    30    65    1
    70    34    66    1
    71    35    67    1
    72    68     1    1
    73    68    33    1
    74    68    18    1
    75    68    11    1
@<TRIPOS>MOLECULE
*****
 68 75 0 0 0
SMALL
GASTEIGER

@<TRIPOS>ATOM
      1 O          -1.9836    1.5683   -1.5767 O.2     1  UNL1        0.0000
      2 C          -1.7505    1.7997   -2.7665 C.2     1  UNL1        0.0000
      3 N          -2.8051    1.6373   -3.6315 N.am    1  UNL1        0.0000
      4 C          -4.1484    1.6826   -3.0490 C.3     1  UNL1        0.0000
      5 C          -2.6105    0.5888   -4.6394 C.3     1  UNL1        0.0000
      6 C          -2.6315   -0.8080   -3.9478 C.3     1  UNL1        0.0000
      7 C          -2.4165   -1.9705   -4.9034 C.3     1  UNL1        0.0000
      8 C          -0.2883    1.9746   -3.1818 C.ar    1  UNL1        0.0000
      9 C           0.2611    2.2995   -4.4440 C.ar    1  UNL1        0.0000
     10 C           1.6815    2.3653   -4.5893 C.ar    1  UNL1        0.0000
     11 N           0.5895    1.7761   -2.1957 N.ar    1  UNL1        0.0000
     12 C           1.9305    1.7997   -2.2845 C.ar    1  UNL1        0.0000
     13 C           2.5380    2.1012   -3.4866 C.ar    1  UNL1        0.0000
     14 C           3.9537    2.0981   -3.5297 C.ar    1  UNL1        0.0000
     15 C           4.7120    1.7706   -2.3667 C.ar    1  UNL1        0.0000
     16 C           4.0564    1.4360   -1.1570 C.ar    1  UNL1        0.0000
     17 C           2.6705    1.4681   -1.1453 C.ar    1  UNL1        0.0000
     18 N           1.9983    1.1242   -0.0339 N.ar    1  UNL1        0.0000
     19 C           2.5516    0.6856    1.1116 C.ar    1  UNL1        0.0000
     20 C           1.5496    0.1817    2.0955 C.ar    1  UNL1        0.0000
     21 N           1.8233   -0.7960    3.0005 N.ar    1  UNL1        0.0000
     22 C           0.7958   -1.5776    3.4862 C.ar    1  UNL1        0.0000
     23 C           1.1060   -2.9353    4.1015 C.3     1  UNL1        0.0000
     24 C           0.9249   -2.8690    5.6296 C.3     1  UNL1        0.0000
     25 C           2.5633   -3.3606    3.8108 C.3     1  UNL1        0.0000
     26 C           0.1603   -4.0015    3.4764 C.3     1  UNL1        0.0000
     27 C          -1.3174   -3.6311    3.6979 C.3     1  UNL1        0.0000
     28 C          -1.6829   -2.2804    3.0398 C.3     1  UNL1        0.0000
     29 C          -2.9910   -1.7225    3.6307 C.3     1  UNL1        0.0000
     30 C          -1.9260   -2.5178    1.5102 C.3     1  UNL1        0.0000
     31 C          -0.5465   -1.2621    3.1103 C.ar    1  UNL1        0.0000
     32 N          -0.7671   -0.1710    2.3699 N.ar    1  UNL1        0.0000
     33 N           0.2500    0.4197    1.7986 N.ar    1  UNL1        0.0000
     34 C           3.9574    0.6294    1.1785 C.ar    1  UNL1        0.0000
     35 C           4.7153    1.0291    0.0375 C.ar    1  UNL1        0.0000
     36 H          -4.2794    2.6213   -2.4682 H       1  UNL1        0.0000
     37 H          -4.9223    1.6657   -3.8442 H       1  UNL1        0.0000
     38 H          -4.3233    0.8309   -2.3552 H       1  UNL1        0.0000
     39 H          -3.4228    0.6333   -5.3959 H       1  UNL1        0.0000
     40 H          -1.6539    0.6985   -5.1767 H       1  UNL1        0.0000
     41 H          -1.8351   -0.8588   -3.1697 H       1  UNL1        0.0000
     42 H          -3.6069   -0.9755   -3.4416 H       1  UNL1        0.0000
     43 H          -3.2180   -1.9920   -5.6696 H       1  UNL1        0.0000
     44 H          -2.4509   -2.9239   -4.3292 H       1  UNL1        0.0000
     45 H          -1.4235   -1.8892   -5.3904 H       1  UNL1        0.0000
     46 H          -0.3757    2.4920   -5.2951 H       1  UNL1        0.0000
     47 H           2.1039    2.5989   -5.5571 H       1  UNL1        0.0000
     48 H           4.4684    2.3245   -4.4542 H       1  UNL1        0.0000
     49 H           5.7928    1.7500   -2.4237 H       1  UNL1        0.0000
     50 H           1.6606   -2.1692    6.0762 H       1  UNL1        0.0000
     51 H           1.0787   -3.8788    6.0731 H       1  UNL1        0.0000
     52 H          -0.0772   -2.5013    5.9246 H       1  UNL1        0.0000
     53 H           2.7528   -3.3913    2.7144 H       1  UNL1        0.0000
     54 H           2.7660   -4.3736    4.2224 H       1  UNL1        0.0000
     55 H           3.2852   -2.6480    4.2644 H       1  UNL1        0.0000
     56 H           0.3617   -4.1104    2.3849 H       1  UNL1        0.0000
     57 H           0.3617   -4.1104    2.3849 H       1  UNL1        0.0000
     58 H          -1.5038   -3.5843    4.7827 H       1  UNL1        0.0000
     59 H          -1.9893   -4.4307    3.3163 H       1  UNL1        0.0000
     60 H          -3.2761   -0.7694    3.1309 H       1  UNL1        0.0000
     61 H          -2.8798   -1.5281    4.7162 H       1  UNL1        0.0000
     62 H          -3.8202   -2.4459    3.4727 H       1  UNL1        0.0000
     63 H          -2.2541   -1.5857    0.9938 H       1  UNL1        0.0000
     64 H          -1.0007   -2.8458    0.9891 H       1  UNL1        0.0000
     65 H          -2.7171   -3.2725    1.3287 H       1  UNL1        0.0000
     66 H           4.4563    0.2682    2.0695 H       1  UNL1        0.0000
     67 H           5.7961    0.9765    0.0728 H       1  UNL1        0.0000
     68 EU         -0.2637    1.1954   -0.2529 Eu      1  UNL1        0.0000
@<TRIPOS>BOND
     1     1     2    2
     2     2     3   am
     3     3     4    1
     4     3     5    1
     5     5     6    1
     6     6     7    1
     7     2     8    1
     8     8     9   ar
     9     9    10   ar
    10     8    11   ar
    11    11    12   ar
    12    12    13   ar
    13    10    13   ar
    14    13    14   ar
    15    14    15   ar
    16    15    16   ar
    17    16    17   ar
    18    12    17   ar
    19    17    18   ar
    20    18    19   ar
    21    19    20    1
    22    20    21   ar
    23    21    22   ar
    24    22    23    1
    25    23    24    1
    26    23    25    1
    27    23    26    1
    28    26    27    1
    29    27    28    1
    30    28    29    1
    31    28    30    1
    32    22    31   ar
    33    28    31    1
    34    31    32   ar
    35    32    33   ar
    36    20    33   ar
    37    19    34   ar
    38    34    35   ar
    39    16    35   ar
    40     4    36    1
    41     4    37    1
    42     4    38    1
    43     5    39    1
    44     5    40    1
    45     6    41    1
    46     6    42    1
    47     7    43    1
    48     7    44    1
    49     7    45    1
    50     9    46    1
    51    10    47    1
    52    14    48    1
    53    15    49    1
    54    24    50    1
    55    24    51    1
    56    24    52    1
    57    25    53    1
    58    25    54    1
    59    25    55    1
    60    26    56    1
    61    26    57    1
    62    27    58    1
    63    27    59    1
    64    29    60    1
    65    29    61    1
    66    29    62    1
    67    30    63    1
    68    30    64    1
    69    30    65    1
    70    34    66    1
    71    35    67    1
    72    68     1    1
    73    68    33    1
    74    68    18    1
    75    68    11    1
@<TRIPOS>MOLECULE
*****
 68 75 0 0 0
SMALL
GASTEIGER

@<TRIPOS>ATOM
      1 O          -1.9915    1.5536   -1.6274 O.2     1  UNL1        0.0000
      2 C          -1.7509    1.8149   -2.8091 C.2     1  UNL1        0.0000
      3 N          -2.7977    1.6749   -3.6842 N.am    1  UNL1        0.0000
      4 C          -4.1455    1.7176   -3.1129 C.3     1  UNL1        0.0000
      5 C          -2.6007    0.6382   -4.7058 C.3     1  UNL1        0.0000
      6 C          -2.6166   -0.7669   -4.0275 C.3     1  UNL1        0.0000
      7 C          -2.4030   -1.9174   -4.9993 C.3     1  UNL1        0.0000
      8 C          -0.2883    1.9982   -3.2144 C.ar    1  UNL1        0.0000
      9 C           0.2655    2.3493   -4.4665 C.ar    1  UNL1        0.0000
     10 C           1.6872    2.4180   -4.6050 C.ar    1  UNL1        0.0000
     11 N           0.5861    1.7797   -2.2267 N.ar    1  UNL1        0.0000
     12 C           1.9246    1.8096   -2.3051 C.ar    1  UNL1        0.0000
     13 C           2.5395    2.1342   -3.5042 C.ar    1  UNL1        0.0000
     14 C           3.9533    2.1399   -3.5371 C.ar    1  UNL1        0.0000
     15 C           4.7077    1.7960   -2.3763 C.ar    1  UNL1        0.0000
     16 C           4.0498    1.4364   -1.1764 C.ar    1  UNL1        0.0000
     17 C           2.6620    1.4654   -1.1694 C.ar    1  UNL1        0.0000
     18 N           1.9887    1.0955   -0.0695 N.ar    1  UNL1        0.0000
     19 C           2.5328    0.6422    1.0716 C.ar    1  UNL1        0.0000
     20 C           1.5325    0.1218    2.0501 C.ar    1  UNL1        0.0000
     21 N           1.8163   -0.8348    2.9729 N.ar    1  UNL1        0.0000
     22 C           0.7974   -1.6095    3.4849 C.ar    1  UNL1        0.0000
     23 C           1.1192   -2.9443    4.1430 C.3     1  UNL1        0.0000
     24 C           0.9614   -2.8238    5.6716 C.3     1  UNL1        0.0000
     25 C           2.5735   -3.3760    3.8447 C.3     1  UNL1        0.0000
     26 C           0.1658   -4.0318    3.5670 C.3     1  UNL1        0.0000
     27 C          -1.3088   -3.6559    3.8027 C.3     1  UNL1        0.0000
     28 C          -1.6907   -2.3275    3.1066 C.3     1  UNL1        0.0000
     29 C          -2.9749   -1.7440    3.7209 C.3     1  UNL1        0.0000
     30 C          -1.9829   -2.6221    1.5969 C.3     1  UNL1        0.0000
     31 C          -0.5484   -1.3151    3.1069 C.ar    1  UNL1        0.0000
     32 N          -0.7788   -0.2482    2.3324 N.ar    1  UNL1        0.0000
     33 N           0.2308    0.3471    1.7489 N.ar    1  UNL1        0.0000
     34 C           3.9392    0.5902    1.1445 C.ar    1  UNL1        0.0000
     35 C           4.6992    1.0123    0.0134 C.ar    1  UNL1        0.0000
     36 H          -4.2757    2.6474   -2.5177 H       1  UNL1        0.0000
     37 H          -4.9128    1.7194   -3.9143 H       1  UNL1        0.0000
     38 H          -4.3311    0.8555   -2.4356 H       1  UNL1        0.0000
     39 H          -3.4133    0.6894   -5.4616 H       1  UNL1        0.0000
     40 H          -1.6443    0.7574   -5.2418 H       1  UNL1        0.0000
     41 H          -1.8162   -0.8244   -3.2565 H       1  UNL1        0.0000
     42 H          -3.5893   -0.9415   -3.5208 H       1  UNL1        0.0000
     43 H          -3.2093   -1.9340   -5.7604 H       1  UNL1        0.0000
     44 H          -2.4300   -2.8770   -4.4348 H       1  UNL1        0.0000
     45 H          -1.4134   -1.8269   -5.4914 H       1  UNL1        0.0000
     46 H          -0.3659    2.5564   -5.3186 H       1  UNL1        0.0000
     47 H           2.1145    2.6730   -5.5660 H       1  UNL1        0.0000
     48 H           4.4728    2.3870   -4.4536 H       1  UNL1        0.0000
     49 H           5.7883    1.7832   -2.4264 H       1  UNL1        0.0000
     50 H           1.7023   -2.1067    6.0812 H       1  UNL1        0.0000
     51 H           1.1244   -3.8154    6.1480 H       1  UNL1        0.0000
     52 H          -0.0363   -2.4453    5.9683 H       1  UNL1        0.0000
     53 H           2.7461   -3.4419    2.7473 H       1  UNL1        0.0000
     54 H           2.7846   -4.3724    4.2882 H       1  UNL1        0.0000
     55 H           3.2991   -2.6453    4.2633 H       1  UNL1        0.0000
     56 H           0.3485   -4.1720    2.4766 H       1  UNL1        0.0000
     57 H           0.3485   -4.1720    2.4766 H       1  UNL1        0.0000
     58 H          -1.4739   -3.5754    4.8904 H       1  UNL1        0.0000
     59 H          -1.9859   -4.4712    3.4641 H       1  UNL1        0.0000
     60 H          -3.2735   -0.8079    3.1977 H       1  UNL1        0.0000
     61 H          -2.8249   -1.5111    4.7944 H       1  UNL1        0.0000
     62 H          -3.8120   -2.4689    3.6199 H       1  UNL1        0.0000
     63 H          -2.3222   -1.7071    1.0578 H       1  UNL1        0.0000
     64 H          -1.0762   -2.9775    1.0615 H       1  UNL1        0.0000
     65 H          -2.7844   -3.3774    1.4706 H       1  UNL1        0.0000
     66 H           4.4337    0.2189    2.0313 H       1  UNL1        0.0000
     67 H           5.7816    0.9668    0.0564 H       1  UNL1        0.0000
     68 EU         -0.2809    1.1588   -0.2954 Eu      1  UNL1        0.0000
@<TRIPOS>BOND
     1     1     2    2
     2     2     3   am
     3     3     4    1
     4     3     5    1
     5     5     6    1
     6     6     7    1
     7     2     8    1
     8     8     9   ar
     9     9    10   ar
    10     8    11   ar
    11    11    12   ar
    12    12    13   ar
    13    10    13   ar
    14    13    14   ar
    15    14    15   ar
    16    15    16   ar
    17    16    17   ar
    18    12    17   ar
    19    17    18   ar
    20    18    19   ar
    21    19    20    1
    22    20    21   ar
    23    21    22   ar
    24    22    23    1
    25    23    24    1
    26    23    25    1
    27    23    26    1
    28    26    27    1
    29    27    28    1
    30    28    29    1
    31    28    30    1
    32    22    31   ar
    33    28    31    1
    34    31    32   ar
    35    32    33   ar
    36    20    33   ar
    37    19    34   ar
    38    34    35   ar
    39    16    35   ar
    40     4    36    1
    41     4    37    1
    42     4    38    1
    43     5    39    1
    44     5    40    1
    45     6    41    1
    46     6    42    1
    47     7    43    1
    48     7    44    1
    49     7    45    1
    50     9    46    1
    51    10    47    1
    52    14    48    1
    53    15    49    1
    54    24    50    1
    55    24    51    1
    56    24    52    1
    57    25    53    1
    58    25    54    1
    59    25    55    1
    60    26    56    1
    61    26    57    1
    62    27    58    1
    63    27    59    1
    64    29    60    1
    65    29    61    1
    66    29    62    1
    67    30    63    1
    68    30    64    1
    69    30    65    1
    70    34    66    1
    71    35    67    1
    72    68     1    1
    73    68    33    1
    74    68    18    1
    75    68    11    1
@<TRIPOS>MOLECULE
*****
 68 75 0 0 0
SMALL
GASTEIGER

@<TRIPOS>ATOM
      1 O          -2.0001    1.5383   -1.6731 O.2     1  UNL1        0.0000
      2 C          -1.7534    1.8257   -2.8467 C.2     1  UNL1        0.0000
      3 N          -2.7952    1.7066   -3.7310 N.am    1  UNL1        0.0000
      4 C          -4.1469    1.7452   -3.1684 C.3     1  UNL1        0.0000
      5 C          -2.5939    0.6829   -4.7645 C.3     1  UNL1        0.0000
      6 C          -2.6068   -0.7305   -4.1032 C.3     1  UNL1        0.0000
      7 C          -2.3922   -1.8696   -5.0877 C.3     1  UNL1        0.0000
      8 C          -0.2911    2.0158   -3.2392 C.ar    1  UNL1        0.0000
      9 C           0.2664    2.3925   -4.4829 C.ar    1  UNL1        0.0000
     10 C           1.6853    2.4718   -4.6119 C.ar    1  UNL1        0.0000
     11 N           0.5750    1.7787   -2.2517 N.ar    1  UNL1        0.0000
     12 C           1.9172    1.8162   -2.3233 C.ar    1  UNL1        0.0000
     13 C           2.5332    2.1707   -3.5116 C.ar    1  UNL1        0.0000
     14 C           3.9496    2.1833   -3.5412 C.ar    1  UNL1        0.0000
     15 C           4.6998    1.8212   -2.3847 C.ar    1  UNL1        0.0000
     16 C           4.0378    1.4351   -1.1947 C.ar    1  UNL1        0.0000
     17 C           2.6524    1.4553   -1.1927 C.ar    1  UNL1        0.0000
     18 N           1.9693    1.0634   -0.1034 N.ar    1  UNL1        0.0000
     19 C           2.5191    0.6031    1.0367 C.ar    1  UNL1        0.0000
     20 C           1.5174    0.0655    2.0068 C.ar    1  UNL1        0.0000
     21 N           1.8092   -0.8711    2.9471 N.ar    1  UNL1        0.0000
     22 C           0.7972   -1.6387    3.4819 C.ar    1  UNL1        0.0000
     23 C           1.1303   -2.9499    4.1791 C.3     1  UNL1        0.0000
     24 C           0.9947   -2.7794    5.7052 C.3     1  UNL1        0.0000
     25 C           2.5810   -3.3893    3.8746 C.3     1  UNL1        0.0000
     26 C           0.1706   -4.0562    3.6512 C.3     1  UNL1        0.0000
     27 C          -1.3004   -3.6747    3.8986 C.3     1  UNL1        0.0000
     28 C          -1.6961   -2.3689    3.1660 C.3     1  UNL1        0.0000
     29 C          -2.9603   -1.7594    3.7966 C.3     1  UNL1        0.0000
     30 C          -2.0294   -2.7134    1.6770 C.3     1  UNL1        0.0000
     31 C          -0.5512   -1.3611    3.1035 C.ar    1  UNL1        0.0000
     32 N          -0.7891   -0.3189    2.2969 N.ar    1  UNL1        0.0000
     33 N           0.2145    0.2774    1.7025 N.ar    1  UNL1        0.0000
     34 C           3.9217    0.5554    1.1131 C.ar    1  UNL1        0.0000
     35 C           4.6842    0.9961   -0.0084 C.ar    1  UNL1        0.0000
     36 H          -4.2768    2.6659   -2.5588 H       1  UNL1        0.0000
     37 H          -4.9081    1.7641   -3.9749 H       1  UNL1        0.0000
     38 H          -4.3416    0.8725   -2.5061 H       1  UNL1        0.0000
     39 H          -3.4045    0.7419   -5.5217 H       1  UNL1        0.0000
     40 H          -1.6362    0.8114   -5.2965 H       1  UNL1        0.0000
     41 H          -1.8051   -0.7961   -3.3341 H       1  UNL1        0.0000
     42 H          -3.5783   -0.9125   -3.5966 H       1  UNL1        0.0000
     43 H          -3.2007   -1.8803   -5.8466 H       1  UNL1        0.0000
     44 H          -2.4147   -2.8349   -4.5331 H       1  UNL1        0.0000
     45 H          -1.4041   -1.7705   -5.5814 H       1  UNL1        0.0000
     46 H          -0.3612    2.6179   -5.3313 H       1  UNL1        0.0000
     47 H           2.1193    2.7462   -5.5655 H       1  UNL1        0.0000
     48 H           4.4715    2.4479   -4.4528 H       1  UNL1        0.0000
     49 H           5.7818    1.8153   -2.4296 H       1  UNL1        0.0000
     50 H           1.7408   -2.0489    6.0805 H       1  UNL1        0.0000
     51 H           1.1659   -3.7547    6.2114 H       1  UNL1        0.0000
     52 H           0.0012   -2.3919    6.0044 H       1  UNL1        0.0000
     53 H           2.7386   -3.4908    2.7778 H       1  UNL1        0.0000
     54 H           2.7999   -4.3702    4.3478 H       1  UNL1        0.0000
     55 H           3.3112   -2.6446    4.2592 H       1  UNL1        0.0000
     56 H           0.3363   -4.2291    2.5629 H       1  UNL1        0.0000
     57 H           0.3363   -4.2291    2.5629 H       1  UNL1        0.0000
     58 H          -1.4470   -3.5612    4.9860 H       1  UNL1        0.0000
     59 H          -1.9818   -4.5011    3.5980 H       1  UNL1        0.0000
     60 H          -3.2701   -0.8399    3.2514 H       1  UNL1        0.0000
     61 H          -2.7783   -1.4913    4.8572 H       1  UNL1        0.0000
     62 H          -3.8023   -2.4836    3.7450 H       1  UNL1        0.0000
     63 H          -2.3775   -1.8149    1.1168 H       1  UNL1        0.0000
     64 H          -1.1388   -3.0939    1.1322 H       1  UNL1        0.0000
     65 H          -2.8387   -3.4670    1.5984 H       1  UNL1        0.0000
     66 H           4.4166    0.1747    1.9976 H       1  UNL1        0.0000
     67 H           5.7638    0.9549    0.0378 H       1  UNL1        0.0000
     68 EU         -0.2981    1.1192   -0.3336 Eu      1  UNL1        0.0000
@<TRIPOS>BOND
     1     1     2    2
     2     2     3   am
     3     3     4    1
     4     3     5    1
     5     5     6    1
     6     6     7    1
     7     2     8    1
     8     8     9   ar
     9     9    10   ar
    10     8    11   ar
    11    11    12   ar
    12    12    13   ar
    13    10    13   ar
    14    13    14   ar
    15    14    15   ar
    16    15    16   ar
    17    16    17   ar
    18    12    17   ar
    19    17    18   ar
    20    18    19   ar
    21    19    20    1
    22    20    21   ar
    23    21    22   ar
    24    22    23    1
    25    23    24    1
    26    23    25    1
    27    23    26    1
    28    26    27    1
    29    27    28    1
    30    28    29    1
    31    28    30    1
    32    22    31   ar
    33    28    31    1
    34    31    32   ar
    35    32    33   ar
    36    20    33   ar
    37    19    34   ar
    38    34    35   ar
    39    16    35   ar
    40     4    36    1
    41     4    37    1
    42     4    38    1
    43     5    39    1
    44     5    40    1
    45     6    41    1
    46     6    42    1
    47     7    43    1
    48     7    44    1
    49     7    45    1
    50     9    46    1
    51    10    47    1
    52    14    48    1
    53    15    49    1
    54    24    50    1
    55    24    51    1
    56    24    52    1
    57    25    53    1
    58    25    54    1
    59    25    55    1
    60    26    56    1
    61    26    57    1
    62    27    58    1
    63    27    59    1
    64    29    60    1
    65    29    61    1
    66    29    62    1
    67    30    63    1
    68    30    64    1
    69    30    65    1
    70    34    66    1
    71    35    67    1
    72    68     1    1
    73    68    33    1
    74    68    18    1
    75    68    11    1
@<TRIPOS>MOLECULE
*****
 68 75 0 0 0
SMALL
GASTEIGER

@<TRIPOS>ATOM
      1 O          -2.0049    1.5259   -1.7180 O.2     1  UNL1        0.0000
      2 C          -1.7546    1.8372   -2.8855 C.2     1  UNL1        0.0000
      3 N          -2.7902    1.7388   -3.7776 N.am    1  UNL1        0.0000
      4 C          -4.1445    1.7742   -3.2253 C.3     1  UNL1        0.0000
      5 C          -2.5834    0.7334   -4.8282 C.3     1  UNL1        0.0000
      6 C          -2.5958   -0.6906   -4.1875 C.3     1  UNL1        0.0000
      7 C          -2.3799   -1.8143   -5.1893 C.3     1  UNL1        0.0000
      8 C          -0.2870    2.0384   -3.2647 C.ar    1  UNL1        0.0000
      9 C           0.2725    2.4442   -4.4970 C.ar    1  UNL1        0.0000
     10 C           1.6913    2.5273   -4.6204 C.ar    1  UNL1        0.0000
     11 N           0.5709    1.7804   -2.2757 N.ar    1  UNL1        0.0000
     12 C           1.9113    1.8258   -2.3443 C.ar    1  UNL1        0.0000
     13 C           2.5359    2.2072   -3.5233 C.ar    1  UNL1        0.0000
     14 C           3.9534    2.2255   -3.5451 C.ar    1  UNL1        0.0000
     15 C           4.6931    1.8413   -2.3900 C.ar    1  UNL1        0.0000
     16 C           4.0312    1.4336   -1.2115 C.ar    1  UNL1        0.0000
     17 C           2.6395    1.4416   -1.2157 C.ar    1  UNL1        0.0000
     18 N           1.9545    1.0295   -0.1358 N.ar    1  UNL1        0.0000
     19 C           2.5044    0.5487    0.9982 C.ar    1  UNL1        0.0000
     20 C           1.5053    0.0000    1.9602 C.ar    1  UNL1        0.0000
     21 N           1.8062   -0.9167    2.9171 N.ar    1  UNL1        0.0000
     22 C           0.8010   -1.6749    3.4765 C.ar    1  UNL1        0.0000
     23 C           1.1440   -2.9590    4.2166 C.3     1  UNL1        0.0000
     24 C           1.0333   -2.7299    5.7376 C.3     1  UNL1        0.0000
     25 C           2.5902   -3.4082    3.9059 C.3     1  UNL1        0.0000
     26 C           0.1761   -4.0838    3.7455 C.3     1  UNL1        0.0000
     27 C          -1.2903   -3.6921    4.0014 C.3     1  UNL1        0.0000
     28 C          -1.6982   -2.4129    3.2270 C.3     1  UNL1        0.0000
     29 C          -2.9401   -1.7719    3.8710 C.3     1  UNL1        0.0000
     30 C          -2.0735   -2.8123    1.7639 C.3     1  UNL1        0.0000
     31 C          -0.5500   -1.4146    3.0988 C.ar    1  UNL1        0.0000
     32 N          -0.7951   -0.3982    2.2610 N.ar    1  UNL1        0.0000
     33 N           0.2028    0.2013    1.6554 N.ar    1  UNL1        0.0000
     34 C           3.9095    0.5146    1.0754 C.ar    1  UNL1        0.0000
     35 C           4.6752    0.9795   -0.0316 C.ar    1  UNL1        0.0000
     36 H          -4.2734    2.6832   -2.5976 H       1  UNL1        0.0000
     37 H          -4.8992    1.8123   -4.0350 H       1  UNL1        0.0000
     38 H          -4.3471    0.8890   -2.5798 H       1  UNL1        0.0000
     39 H          -3.3917    0.8034   -5.5861 H       1  UNL1        0.0000
     40 H          -1.6242    0.8711   -5.3541 H       1  UNL1        0.0000
     41 H          -1.7936   -0.7671   -3.4203 H       1  UNL1        0.0000
     42 H          -3.5668   -0.8805   -3.6839 H       1  UNL1        0.0000
     43 H          -3.1894   -1.8154   -5.9470 H       1  UNL1        0.0000
     44 H          -2.4003   -2.7874   -4.6481 H       1  UNL1        0.0000
     45 H          -1.3925   -1.7066   -5.6822 H       1  UNL1        0.0000
     46 H          -0.3546    2.6852   -5.3446 H       1  UNL1        0.0000
     47 H           2.1266    2.8264   -5.5670 H       1  UNL1        0.0000
     48 H           4.4725    2.5112   -4.4465 H       1  UNL1        0.0000
     49 H           5.7756    1.8450   -2.4331 H       1  UNL1        0.0000
     50 H           1.7848   -1.9856    6.0726 H       1  UNL1        0.0000
     51 H           1.2132   -3.6851    6.2782 H       1  UNL1        0.0000
     52 H           0.0447   -2.3309    6.0382 H       1  UNL1        0.0000
     53 H           2.7304   -3.5485    2.8109 H       1  UNL1        0.0000
     54 H           2.8181   -4.3706    4.4112 H       1  UNL1        0.0000
     55 H           3.3248   -2.6489    4.2514 H       1  UNL1        0.0000
     56 H           0.3237   -4.2948    2.6607 H       1  UNL1        0.0000
     57 H           0.3237   -4.2948    2.6607 H       1  UNL1        0.0000
     58 H          -1.4171   -3.5381    5.0862 H       1  UNL1        0.0000
     59 H          -1.9773   -4.5284    3.7454 H       1  UNL1        0.0000
     60 H          -3.2614   -0.8715    3.3014 H       1  UNL1        0.0000
     61 H          -2.7240   -1.4651    4.9147 H       1  UNL1        0.0000
     62 H          -3.7867   -2.4924    3.8742 H       1  UNL1        0.0000
     63 H          -2.4313   -1.9331    1.1795 H       1  UNL1        0.0000
     64 H          -1.2008   -3.2230    1.2120 H       1  UNL1        0.0000
     65 H          -2.8903   -3.5618    1.7387 H       1  UNL1        0.0000
     66 H           4.4047    0.1264    1.9614 H       1  UNL1        0.0000
     67 H           5.7556    0.9443    0.0159 H       1  UNL1        0.0000
     68 EU         -0.3121    1.0791   -0.3711 Eu      1  UNL1        0.0000
@<TRIPOS>BOND
     1     1     2    2
     2     2     3   am
     3     3     4    1
     4     3     5    1
     5     5     6    1
     6     6     7    1
     7     2     8    1
     8     8     9   ar
     9     9    10   ar
    10     8    11   ar
    11    11    12   ar
    12    12    13   ar
    13    10    13   ar
    14    13    14   ar
    15    14    15   ar
    16    15    16   ar
    17    16    17   ar
    18    12    17   ar
    19    17    18   ar
    20    18    19   ar
    21    19    20    1
    22    20    21   ar
    23    21    22   ar
    24    22    23    1
    25    23    24    1
    26    23    25    1
    27    23    26    1
    28    26    27    1
    29    27    28    1
    30    28    29    1
    31    28    30    1
    32    22    31   ar
    33    28    31    1
    34    31    32   ar
    35    32    33   ar
    36    20    33   ar
    37    19    34   ar
    38    34    35   ar
    39    16    35   ar
    40     4    36    1
    41     4    37    1
    42     4    38    1
    43     5    39    1
    44     5    40    1
    45     6    41    1
    46     6    42    1
    47     7    43    1
    48     7    44    1
    49     7    45    1
    50     9    46    1
    51    10    47    1
    52    14    48    1
    53    15    49    1
    54    24    50    1
    55    24    51    1
    56    24    52    1
    57    25    53    1
    58    25    54    1
    59    25    55    1
    60    26    56    1
    61    26    57    1
    62    27    58    1
    63    27    59    1
    64    29    60    1
    65    29    61    1
    66    29    62    1
    67    30    63    1
    68    30    64    1
    69    30    65    1
    70    34    66    1
    71    35    67    1
    72    68     1    1
    73    68    33    1
    74    68    18    1
    75    68    11    1
@<TRIPOS>MOLECULE
*****
 68 75 0 0 0
SMALL
GASTEIGER

@<TRIPOS>ATOM
      1 O          -2.0111    1.5071   -1.7614 O.2     1  UNL1        0.0000
      2 C          -1.7544    1.8419   -2.9219 C.2     1  UNL1        0.0000
      3 N          -2.7847    1.7676   -3.8208 N.am    1  UNL1        0.0000
      4 C          -4.1441    1.7967   -3.2752 C.3     1  UNL1        0.0000
      5 C          -2.5762    0.7766   -4.8840 C.3     1  UNL1        0.0000
      6 C          -2.5880   -0.6526   -4.2722 C.3     1  UNL1        0.0000
      7 C          -2.3696   -1.7639   -5.2849 C.3     1  UNL1        0.0000
      8 C          -0.2908    2.0485   -3.2893 C.ar    1  UNL1        0.0000
      9 C           0.2741    2.4801   -4.5094 C.ar    1  UNL1        0.0000
     10 C           1.6951    2.5726   -4.6229 C.ar    1  UNL1        0.0000
     11 N           0.5632    1.7744   -2.3013 N.ar    1  UNL1        0.0000
     12 C           1.9051    1.8240   -2.3603 C.ar    1  UNL1        0.0000
     13 C           2.5301    2.2305   -3.5287 C.ar    1  UNL1        0.0000
     14 C           3.9456    2.2581   -3.5451 C.ar    1  UNL1        0.0000
     15 C           4.6879    1.8598   -2.3958 C.ar    1  UNL1        0.0000
     16 C           4.0223    1.4272   -1.2243 C.ar    1  UNL1        0.0000
     17 C           2.6312    1.4278   -1.2353 C.ar    1  UNL1        0.0000
     18 N           1.9435    0.9961   -0.1638 N.ar    1  UNL1        0.0000
     19 C           2.4899    0.5074    0.9613 C.ar    1  UNL1        0.0000
     20 C           1.4951   -0.0600    1.9204 C.ar    1  UNL1        0.0000
     21 N           1.8011   -0.9581    2.8907 N.ar    1  UNL1        0.0000
     22 C           0.8035   -1.7073    3.4715 C.ar    1  UNL1        0.0000
     23 C           1.1564   -2.9656    4.2496 C.3     1  UNL1        0.0000
     24 C           1.0682   -2.6849    5.7635 C.3     1  UNL1        0.0000
     25 C           2.5977   -3.4265    3.9333 C.3     1  UNL1        0.0000
     26 C           0.1813   -4.1047    3.8307 C.3     1  UNL1        0.0000
     27 C          -1.2828   -3.7031    4.0935 C.3     1  UNL1        0.0000
     28 C          -1.6974   -2.4503    3.2798 C.3     1  UNL1        0.0000
     29 C          -2.9226   -1.7799    3.9314 C.3     1  UNL1        0.0000
     30 C          -2.1074   -2.8970    1.8423 C.3     1  UNL1        0.0000
     31 C          -0.5497   -1.4624    3.0955 C.ar    1  UNL1        0.0000
     32 N          -0.8030   -0.4665    2.2315 N.ar    1  UNL1        0.0000
     33 N           0.1885    0.1305    1.6133 N.ar    1  UNL1        0.0000
     34 C           3.8950    0.4781    1.0516 C.ar    1  UNL1        0.0000
     35 C           4.6635    0.9587   -0.0501 C.ar    1  UNL1        0.0000
     36 H          -4.2733    2.6970   -2.6360 H       1  UNL1        0.0000
     37 H          -4.8930    1.8556   -4.0934 H       1  UNL1        0.0000
     38 H          -4.3556    0.9032   -2.6524 H       1  UNL1        0.0000
     39 H          -3.3824    0.8602   -5.6477 H       1  UNL1        0.0000
     40 H          -1.6151    0.9258   -5.4093 H       1  UNL1        0.0000
     41 H          -1.7866   -0.7426   -3.5011 H       1  UNL1        0.0000
     42 H          -3.5594   -0.8531   -3.7676 H       1  UNL1        0.0000
     43 H          -3.1785   -1.7553   -6.0434 H       1  UNL1        0.0000
     44 H          -2.3884   -2.7444   -4.7580 H       1  UNL1        0.0000
     45 H          -1.3819   -1.6469   -5.7757 H       1  UNL1        0.0000
     46 H          -0.3481    2.7402   -5.3544 H       1  UNL1        0.0000
     47 H           2.1323    2.8916   -5.5597 H       1  UNL1        0.0000
     48 H           4.4723    2.5662   -4.4392 H       1  UNL1        0.0000
     49 H           5.7706    1.8698   -2.4316 H       1  UNL1        0.0000
     50 H           1.8249   -1.9296    6.0618 H       1  UNL1        0.0000
     51 H           1.2563   -3.6207    6.3341 H       1  UNL1        0.0000
     52 H           0.0845   -2.2748    6.0652 H       1  UNL1        0.0000
     53 H           2.7224   -3.6041    2.8423 H       1  UNL1        0.0000
     54 H           2.8323   -4.3713    4.4684 H       1  UNL1        0.0000
     55 H           3.3379   -2.6570    4.2431 H       1  UNL1        0.0000
     56 H           0.3127   -4.3522    2.7512 H       1  UNL1        0.0000
     57 H           0.3127   -4.3522    2.7512 H       1  UNL1        0.0000
     58 H          -1.3905   -3.5122    5.1746 H       1  UNL1        0.0000
     59 H          -1.9724   -4.5462    3.8776 H       1  UNL1        0.0000
     60 H          -3.2538   -0.8980    3.3401 H       1  UNL1        0.0000
     61 H          -2.6803   -1.4381    4.9596 H       1  UNL1        0.0000
     62 H          -3.7722   -2.4956    3.9818 H       1  UNL1        0.0000
     63 H          -2.4716   -2.0361    1.2369 H       1  UNL1        0.0000
     64 H          -1.2493   -3.3347    1.2899 H       1  UNL1        0.0000
     65 H          -2.9300   -3.6407    1.8637 H       1  UNL1        0.0000
     66 H           4.3884    0.0810    1.9293 H       1  UNL1        0.0000
     67 H           5.7450    0.9332    0.0041 H       1  UNL1        0.0000
     68 EU         -0.3261    1.0369   -0.4071 Eu      1  UNL1        0.0000
@<TRIPOS>BOND
     1     1     2    2
     2     2     3   am
     3     3     4    1
     4     3     5    1
     5     5     6    1
     6     6     7    1
     7     2     8    1
     8     8     9   ar
     9     9    10   ar
    10     8    11   ar
    11    11    12   ar
    12    12    13   ar
    13    10    13   ar
    14    13    14   ar
    15    14    15   ar
    16    15    16   ar
    17    16    17   ar
    18    12    17   ar
    19    17    18   ar
    20    18    19   ar
    21    19    20    1
    22    20    21   ar
    23    21    22   ar
    24    22    23    1
    25    23    24    1
    26    23    25    1
    27    23    26    1
    28    26    27    1
    29    27    28    1
    30    28    29    1
    31    28    30    1
    32    22    31   ar
    33    28    31    1
    34    31    32   ar
    35    32    33   ar
    36    20    33   ar
    37    19    34   ar
    38    34    35   ar
    39    16    35   ar
    40     4    36    1
    41     4    37    1
    42     4    38    1
    43     5    39    1
    44     5    40    1
    45     6    41    1
    46     6    42    1
    47     7    43    1
    48     7    44    1
    49     7    45    1
    50     9    46    1
    51    10    47    1
    52    14    48    1
    53    15    49    1
    54    24    50    1
    55    24    51    1
    56    24    52    1
    57    25    53    1
    58    25    54    1
    59    25    55    1
    60    26    56    1
    61    26    57    1
    62    27    58    1
    63    27    59    1
    64    29    60    1
    65    29    61    1
    66    29    62    1
    67    30    63    1
    68    30    64    1
    69    30    65    1
    70    34    66    1
    71    35    67    1
    72    68     1    1
    73    68    33    1
    74    68    18    1
    75    68    11    1
@<TRIPOS>MOLECULE
*****
 68 75 0 0 0
SMALL
GASTEIGER

@<TRIPOS>ATOM
      1 O          -2.0206    1.4909   -1.7977 O.2     1  UNL1        0.0000
      2 C          -1.7576    1.8472   -2.9492 C.2     1  UNL1        0.0000
      3 N          -2.7824    1.7893   -3.8573 N.am    1  UNL1        0.0000
      4 C          -4.1440    1.8159   -3.3209 C.3     1  UNL1        0.0000
      5 C          -2.5692    0.8190   -4.9384 C.3     1  UNL1        0.0000
      6 C          -2.5825   -0.6234   -4.3443 C.3     1  UNL1        0.0000
      7 C          -2.3608   -1.7148   -5.3788 C.3     1  UNL1        0.0000
      8 C          -0.2970    2.0579   -3.3033 C.ar    1  UNL1        0.0000
      9 C           0.2751    2.5134   -4.5162 C.ar    1  UNL1        0.0000
     10 C           1.6956    2.6136   -4.6224 C.ar    1  UNL1        0.0000
     11 N           0.5525    1.7657   -2.3175 N.ar    1  UNL1        0.0000
     12 C           1.8992    1.8229   -2.3706 C.ar    1  UNL1        0.0000
     13 C           2.5269    2.2539   -3.5295 C.ar    1  UNL1        0.0000
     14 C           3.9416    2.2878   -3.5389 C.ar    1  UNL1        0.0000
     15 C           4.6807    1.8747   -2.3944 C.ar    1  UNL1        0.0000
     16 C           4.0071    1.4171   -1.2353 C.ar    1  UNL1        0.0000
     17 C           2.6205    1.4100   -1.2524 C.ar    1  UNL1        0.0000
     18 N           1.9279    0.9557   -0.1926 N.ar    1  UNL1        0.0000
     19 C           2.4750    0.4570    0.9326 C.ar    1  UNL1        0.0000
     20 C           1.4822   -0.1135    1.8865 C.ar    1  UNL1        0.0000
     21 N           1.7968   -0.9981    2.8672 N.ar    1  UNL1        0.0000
     22 C           0.8055   -1.7390    3.4672 C.ar    1  UNL1        0.0000
     23 C           1.1675   -2.9728    4.2790 C.3     1  UNL1        0.0000
     24 C           1.1015   -2.6429    5.7842 C.3     1  UNL1        0.0000
     25 C           2.6041   -3.4441    3.9572 C.3     1  UNL1        0.0000
     26 C           0.1858   -4.1229    3.9080 C.3     1  UNL1        0.0000
     27 C          -1.2716   -3.7095    4.1775 C.3     1  UNL1        0.0000
     28 C          -1.6994   -2.4828    3.3306 C.3     1  UNL1        0.0000
     29 C          -2.9068   -1.7858    3.9828 C.3     1  UNL1        0.0000
     30 C          -2.1358   -2.9749    1.9161 C.3     1  UNL1        0.0000
     31 C          -0.5509   -1.5062    3.0943 C.ar    1  UNL1        0.0000
     32 N          -0.8111   -0.5320    2.2076 N.ar    1  UNL1        0.0000
     33 N           0.1741    0.0672    1.5781 N.ar    1  UNL1        0.0000
     34 C           3.8810    0.4380    1.0277 C.ar    1  UNL1        0.0000
     35 C           4.6495    0.9382   -0.0638 C.ar    1  UNL1        0.0000
     36 H          -4.2747    2.7051   -2.6659 H       1  UNL1        0.0000
     37 H          -4.8871    1.8925   -4.1417 H       1  UNL1        0.0000
     38 H          -4.3643    0.9114   -2.7137 H       1  UNL1        0.0000
     39 H          -3.3719    0.9139   -5.7003 H       1  UNL1        0.0000
     40 H          -1.6064    0.9755   -5.4543 H       1  UNL1        0.0000
     41 H          -1.7824   -0.7232   -3.5772 H       1  UNL1        0.0000
     42 H          -3.5547   -0.8292   -3.8489 H       1  UNL1        0.0000
     43 H          -3.1685   -1.6949   -6.1382 H       1  UNL1        0.0000
     44 H          -2.3793   -2.7037   -4.8673 H       1  UNL1        0.0000
     45 H          -1.3724   -1.5887   -5.8656 H       1  UNL1        0.0000
     46 H          -0.3442    2.7894   -5.3579 H       1  UNL1        0.0000
     47 H           2.1357    2.9518   -5.5506 H       1  UNL1        0.0000
     48 H           4.4711    2.6153   -4.4247 H       1  UNL1        0.0000
     49 H           5.7622    1.8915   -2.4227 H       1  UNL1        0.0000
     50 H           1.8626   -1.8791    6.0470 H       1  UNL1        0.0000
     51 H           1.2975   -3.5596    6.3823 H       1  UNL1        0.0000
     52 H           0.1226   -2.2222    6.0869 H       1  UNL1        0.0000
     53 H           2.7137   -3.6555    2.8706 H       1  UNL1        0.0000
     54 H           2.8463   -4.3713    4.5187 H       1  UNL1        0.0000
     55 H           3.3486   -2.6655    4.2323 H       1  UNL1        0.0000
     56 H           0.3028   -4.4050    2.8366 H       1  UNL1        0.0000
     57 H           0.3028   -4.4050    2.8366 H       1  UNL1        0.0000
     58 H          -1.3654   -3.4837    5.2531 H       1  UNL1        0.0000
     59 H          -1.9679   -4.5586    3.9998 H       1  UNL1        0.0000
     60 H          -3.2460   -0.9218    3.3694 H       1  UNL1        0.0000
     61 H          -2.6413   -1.4115    4.9932 H       1  UNL1        0.0000
     62 H          -3.7578   -2.4950    4.0747 H       1  UNL1        0.0000
     63 H          -2.5054   -2.1312    1.2888 H       1  UNL1        0.0000
     64 H          -1.2899   -3.4368    1.3635 H       1  UNL1        0.0000
     65 H          -2.9624   -3.7118    1.9769 H       1  UNL1        0.0000
     66 H           4.3709    0.0365    1.9038 H       1  UNL1        0.0000
     67 H           5.7305    0.9190   -0.0046 H       1  UNL1        0.0000
     68 EU         -0.3466    0.9977   -0.4345 Eu      1  UNL1        0.0000
@<TRIPOS>BOND
     1     1     2    2
     2     2     3   am
     3     3     4    1
     4     3     5    1
     5     5     6    1
     6     6     7    1
     7     2     8    1
     8     8     9   ar
     9     9    10   ar
    10     8    11   ar
    11    11    12   ar
    12    12    13   ar
    13    10    13   ar
    14    13    14   ar
    15    14    15   ar
    16    15    16   ar
    17    16    17   ar
    18    12    17   ar
    19    17    18   ar
    20    18    19   ar
    21    19    20    1
    22    20    21   ar
    23    21    22   ar
    24    22    23    1
    25    23    24    1
    26    23    25    1
    27    23    26    1
    28    26    27    1
    29    27    28    1
    30    28    29    1
    31    28    30    1
    32    22    31   ar
    33    28    31    1
    34    31    32   ar
    35    32    33   ar
    36    20    33   ar
    37    19    34   ar
    38    34    35   ar
    39    16    35   ar
    40     4    36    1
    41     4    37    1
    42     4    38    1
    43     5    39    1
    44     5    40    1
    45     6    41    1
    46     6    42    1
    47     7    43    1
    48     7    44    1
    49     7    45    1
    50     9    46    1
    51    10    47    1
    52    14    48    1
    53    15    49    1
    54    24    50    1
    55    24    51    1
    56    24    52    1
    57    25    53    1
    58    25    54    1
    59    25    55    1
    60    26    56    1
    61    26    57    1
    62    27    58    1
    63    27    59    1
    64    29    60    1
    65    29    61    1
    66    29    62    1
    67    30    63    1
    68    30    64    1
    69    30    65    1
    70    34    66    1
    71    35    67    1
    72    68     1    1
    73    68    33    1
    74    68    18    1
    75    68    11    1
@<TRIPOS>MOLECULE
*****
 68 75 0 0 0
SMALL
GASTEIGER

@<TRIPOS>ATOM
      1 O          -2.0328    1.4728   -1.8260 O.2     1  UNL1        0.0000
      2 C          -1.7653    1.8471   -2.9699 C.2     1  UNL1        0.0000
      3 N          -2.7810    1.8092   -3.8873 N.am    1  UNL1        0.0000
      4 C          -4.1485    1.8293   -3.3604 C.3     1  UNL1        0.0000
      5 C          -2.5641    0.8610   -4.9867 C.3     1  UNL1        0.0000
      6 C          -2.5777   -0.5931   -4.4214 C.3     1  UNL1        0.0000
      7 C          -2.3519   -1.6651   -5.4752 C.3     1  UNL1        0.0000
      8 C          -0.3001    2.0660   -3.3190 C.ar    1  UNL1        0.0000
      9 C           0.2709    2.5491   -4.5177 C.ar    1  UNL1        0.0000
     10 C           1.6924    2.6488   -4.6187 C.ar    1  UNL1        0.0000
     11 N           0.5472    1.7591   -2.3302 N.ar    1  UNL1        0.0000
     12 C           1.8918    1.8187   -2.3819 C.ar    1  UNL1        0.0000
     13 C           2.5219    2.2757   -3.5300 C.ar    1  UNL1        0.0000
     14 C           3.9349    2.3178   -3.5349 C.ar    1  UNL1        0.0000
     15 C           4.6720    1.8887   -2.3937 C.ar    1  UNL1        0.0000
     16 C           3.9985    1.4112   -1.2457 C.ar    1  UNL1        0.0000
     17 C           2.6077    1.3978   -1.2668 C.ar    1  UNL1        0.0000
     18 N           1.9145    0.9272   -0.2141 N.ar    1  UNL1        0.0000
     19 C           2.4623    0.4153    0.9047 C.ar    1  UNL1        0.0000
     20 C           1.4727   -0.1664    1.8547 C.ar    1  UNL1        0.0000
     21 N           1.7946   -1.0368    2.8460 N.ar    1  UNL1        0.0000
     22 C           0.8095   -1.7693    3.4639 C.ar    1  UNL1        0.0000
     23 C           1.1805   -2.9789    4.3086 C.3     1  UNL1        0.0000
     24 C           1.1374   -2.6004    5.8033 C.3     1  UNL1        0.0000
     25 C           2.6113   -3.4632    3.9810 C.3     1  UNL1        0.0000
     26 C           0.1914   -4.1379    3.9884 C.3     1  UNL1        0.0000
     27 C          -1.2610   -3.7119    4.2629 C.3     1  UNL1        0.0000
     28 C          -1.6972   -2.5128    3.3792 C.3     1  UNL1        0.0000
     29 C          -2.8898   -1.7889    4.0302 C.3     1  UNL1        0.0000
     30 C          -2.1595   -3.0501    1.9915 C.3     1  UNL1        0.0000
     31 C          -0.5491   -1.5515    3.0944 C.ar    1  UNL1        0.0000
     32 N          -0.8163   -0.5945    2.1867 N.ar    1  UNL1        0.0000
     33 N           0.1623    0.0045    1.5459 N.ar    1  UNL1        0.0000
     34 C           3.8680    0.4029    1.0022 C.ar    1  UNL1        0.0000
     35 C           4.6380    0.9197   -0.0786 C.ar    1  UNL1        0.0000
     36 H          -4.2801    2.7067   -2.6916 H       1  UNL1        0.0000
     37 H          -4.8840    1.9257   -4.1871 H       1  UNL1        0.0000
     38 H          -4.3752    0.9134   -2.7740 H       1  UNL1        0.0000
     39 H          -3.3617    0.9689   -5.7518 H       1  UNL1        0.0000
     40 H          -1.5983    1.0265   -5.4959 H       1  UNL1        0.0000
     41 H          -1.7802   -0.7071   -3.6539 H       1  UNL1        0.0000
     42 H          -3.5516   -0.8083   -3.9332 H       1  UNL1        0.0000
     43 H          -3.1573   -1.6319   -6.2366 H       1  UNL1        0.0000
     44 H          -2.3710   -2.6632   -4.9820 H       1  UNL1        0.0000
     45 H          -1.3620   -1.5294   -5.9567 H       1  UNL1        0.0000
     46 H          -0.3425    2.8352   -5.3580 H       1  UNL1        0.0000
     47 H           2.1362    3.0092   -5.5386 H       1  UNL1        0.0000
     48 H           4.4670    2.6623   -4.4128 H       1  UNL1        0.0000
     49 H           5.7549    1.9135   -2.4184 H       1  UNL1        0.0000
     50 H           1.9030   -1.8294    6.0299 H       1  UNL1        0.0000
     51 H           1.3410   -3.4973    6.4283 H       1  UNL1        0.0000
     52 H           0.1635   -2.1683    6.1065 H       1  UNL1        0.0000
     53 H           2.7048   -3.7091    2.9002 H       1  UNL1        0.0000
     54 H           2.8604   -4.3726    4.5683 H       1  UNL1        0.0000
     55 H           3.3612   -2.6780    4.2206 H       1  UNL1        0.0000
     56 H           0.2933   -4.4557    2.9257 H       1  UNL1        0.0000
     57 H           0.2933   -4.4557    2.9257 H       1  UNL1        0.0000
     58 H          -1.3394   -3.4499    5.3312 H       1  UNL1        0.0000
     59 H          -1.9616   -4.5646    4.1237 H       1  UNL1        0.0000
     60 H          -3.2372   -0.9443    3.3949 H       1  UNL1        0.0000
     61 H          -2.6037   -1.3822    5.0224 H       1  UNL1        0.0000
     62 H          -3.7415   -2.4907    4.1628 H       1  UNL1        0.0000
     63 H          -2.5346   -2.2252    1.3425 H       1  UNL1        0.0000
     64 H          -1.3260   -3.5371    1.4417 H       1  UNL1        0.0000
     65 H          -2.9894   -3.7788    2.0923 H       1  UNL1        0.0000
     66 H           4.3584   -0.0069    1.8760 H       1  UNL1        0.0000
     67 H           5.7189    0.9057   -0.0164 H       1  UNL1        0.0000
     68 EU         -0.3633    0.9585   -0.4611 Eu      1  UNL1        0.0000
@<TRIPOS>BOND
     1     1     2    2
     2     2     3   am
     3     3     4    1
     4     3     5    1
     5     5     6    1
     6     6     7    1
     7     2     8    1
     8     8     9   ar
     9     9    10   ar
    10     8    11   ar
    11    11    12   ar
    12    12    13   ar
    13    10    13   ar
    14    13    14   ar
    15    14    15   ar
    16    15    16   ar
    17    16    17   ar
    18    12    17   ar
    19    17    18   ar
    20    18    19   ar
    21    19    20    1
    22    20    21   ar
    23    21    22   ar
    24    22    23    1
    25    23    24    1
    26    23    25    1
    27    23    26    1
    28    26    27    1
    29    27    28    1
    30    28    29    1
    31    28    30    1
    32    22    31   ar
    33    28    31    1
    34    31    32   ar
    35    32    33   ar
    36    20    33   ar
    37    19    34   ar
    38    34    35   ar
    39    16    35   ar
    40     4    36    1
    41     4    37    1
    42     4    38    1
    43     5    39    1
    44     5    40    1
    45     6    41    1
    46     6    42    1
    47     7    43    1
    48     7    44    1
    49     7    45    1
    50     9    46    1
    51    10    47    1
    52    14    48    1
    53    15    49    1
    54    24    50    1
    55    24    51    1
    56    24    52    1
    57    25    53    1
    58    25    54    1
    59    25    55    1
    60    26    56    1
    61    26    57    1
    62    27    58    1
    63    27    59    1
    64    29    60    1
    65    29    61    1
    66    29    62    1
    67    30    63    1
    68    30    64    1
    69    30    65    1
    70    34    66    1
    71    35    67    1
    72    68     1    1
    73    68    33    1
    74    68    18    1
    75    68    11    1
@<TRIPOS>MOLECULE
*****
 68 75 0 0 0
SMALL
GASTEIGER

@<TRIPOS>ATOM
      1 O          -2.2683    1.4658   -2.1385 O.2     1  UNL1        0.0000
      2 C          -1.7148    1.8019   -1.9994 C.2     1  UNL1        0.0000
      3 N          -3.5249    1.5862   -3.6762 N.am    1  UNL1        0.0000
      4 C          -4.8327    1.7396   -3.4947 C.3     1  UNL1        0.0000
      5 C          -2.5584    0.5203   -4.3136 C.3     1  UNL1        0.0000
      6 C          -2.4551   -1.1380   -5.3463 C.3     1  UNL1        0.0000
      7 C          -2.2295   -1.4245   -5.3916 C.3     1  UNL1        0.0000
      8 C          -0.7603    1.8253   -3.0365 C.ar    1  UNL1        0.0000
      9 C           0.7814    2.5117   -5.8348 C.ar    1  UNL1        0.0000
     10 C           2.6518    2.1892   -4.6521 C.ar    1  UNL1        0.0000
     11 N           1.0389    1.9898   -1.6184 N.ar    1  UNL1        0.0000
     12 C           1.9669    1.7884   -2.6220 C.ar    1  UNL1        0.0000
     13 C           2.5522    1.5492   -3.8789 C.ar    1  UNL1        0.0000
     14 C           4.5836    1.6166   -3.8419 C.ar    1  UNL1        0.0000
     15 C           4.5678    2.1593   -3.0024 C.ar    1  UNL1        0.0000
     16 C           3.6635    1.6423   -0.3125 C.ar    1  UNL1        0.0000
     17 C           1.9963    1.6239   -1.5862 C.ar    1  UNL1        0.0000
     18 N           1.4521    0.9367    0.0161 N.ar    1  UNL1        0.0000
     19 C           3.0003    1.1273    0.4866 C.ar    1  UNL1        0.0000
     20 C           1.3884    0.0483    1.0551 C.ar    1  UNL1        0.0000
     21 N           1.4969   -0.5770    3.6241 N.ar    1  UNL1        0.0000
     22 C           1.3556   -1.4109    3.3319 C.ar    1  UNL1        0.0000
     23 C           1.1320   -4.0937    4.1015 C.3     1  UNL1        0.0000
     24 C           0.5064   -2.8509    6.6567 C.3     1  UNL1        0.0000
     25 C           3.1141   -4.2308    3.5978 C.3     1  UNL1        0.0000
     26 C           0.8363   -4.3147    4.6972 C.3     1  UNL1        0.0000
     27 C          -1.4525   -3.3684    5.0811 C.3     1  UNL1        0.0000
     28 C          -2.4667   -3.0382    2.2611 C.3     1  UNL1        0.0000
     29 C          -1.8945   -1.5621    4.1644 C.3     1  UNL1        0.0000
     30 C          -1.6524   -3.4230    1.4506 C.3     1  UNL1        0.0000
     31 C          -0.7875   -1.7893    2.2427 C.ar    1  UNL1        0.0000
     32 N          -0.6159   -0.5658    1.8668 N.ar    1  UNL1        0.0000
     33 N           0.7777    0.5682    1.6017 N.ar    1  UNL1        0.0000
     34 C           4.3004    1.3639    0.7746 C.ar    1  UNL1        0.0000
     35 C           4.9311    1.6063    0.3705 C.ar    1  UNL1        0.0000
     36 H          -4.7716    2.0309   -2.8552 H       1  UNL1        0.0000
     37 H          -5.2150    2.2928   -3.3481 H       1  UNL1        0.0000
     38 H          -4.1967    0.0300   -3.2033 H       1  UNL1        0.0000
     39 H          -3.3096    0.8483   -5.9730 H       1  UNL1        0.0000
     40 H          -1.0748    0.7743   -5.5019 H       1  UNL1        0.0000
     41 H          -1.7442   -0.1974   -4.3330 H       1  UNL1        0.0000
     42 H          -2.6748   -1.0302   -3.9597 H       1  UNL1        0.0000
     43 H          -4.5642   -1.1371   -6.2936 H       1  UNL1        0.0000
     44 H          -2.7950   -2.3431   -4.9208 H       1  UNL1        0.0000
     45 H          -1.7558   -1.4124   -5.5052 H       1  UNL1        0.0000
     46 H          -0.3079    3.0534   -5.1366 H       1  UNL1        0.0000
     47 H           2.4264    3.4954   -6.8407 H       1  UNL1        0.0000
     48 H           4.5786    2.3616   -4.8590 H       1  UNL1        0.0000
     49 H           6.3934    1.8266   -3.6016 H       1  UNL1        0.0000
     50 H           2.6584   -2.0340    5.6999 H       1  UNL1        0.0000
     51 H           1.3584   -2.7588    5.8324 H       1  UNL1        0.0000
     52 H           0.3846   -1.7105    5.7753 H       1  UNL1        0.0000
     53 H           2.7627   -3.2926    2.3862 H       1  UNL1        0.0000
     54 H           2.7914   -4.6566    4.7179 H       1  UNL1        0.0000
     55 H           3.4931   -3.3609    3.4802 H       1  UNL1        0.0000
     56 H           0.0836   -4.0021    3.3561 H       1  UNL1        0.0000
     57 H           0.2004   -4.5523    2.6838 H       1  UNL1        0.0000
     58 H          -1.0546   -3.4173    5.2541 H       1  UNL1        0.0000
     59 H          -1.7045   -3.9193    3.6059 H       1  UNL1        0.0000
     60 H          -3.6281   -0.1251    3.1709 H       1  UNL1        0.0000
     61 H          -2.1505   -0.8544    4.8742 H       1  UNL1        0.0000
     62 H          -3.8353   -2.1136    3.6585 H       1  UNL1        0.0000
     63 H          -2.5951   -2.4541    1.1150 H       1  UNL1        0.0000
     64 H          -2.1144   -4.2580    0.4834 H       1  UNL1        0.0000
     65 H          -2.7560   -4.8901    1.3989 H       1  UNL1        0.0000
     66 H           4.9170    0.3955    1.6905 H       1  UNL1        0.0000
     67 H           5.4103    1.3467    0.8458 H       1  UNL1        0.0000
     68 EU         -0.2338    0.4537   -0.2739 Eu      1  UNL1        0.0000
@<TRIPOS>BOND
     1     1     2    2
     2     2     3   am
     3     3     4    1
     4     3     5    1
     5     5     6    1
     6     6     7    1
     7     2     8    1
     8     8     9   ar
     9     9    10   ar
    10     8    11   ar
    11    11    12   ar
    12    12    13   ar
    13    10    13   ar
    14    13    14   ar
    15    14    15   ar
    16    15    16   ar
    17    16    17   ar
    18    12    17   ar
    19    17    18   ar
    20    18    19   ar
    21    19    20    1
    22    20    21   ar
    23    21    22   ar
    24    22    23    1
    25    23    24    1
    26    23    25    1
    27    23    26    1
    28    26    27    1
    29    27    28    1
    30    28    29    1
    31    28    30    1
    32    22    31   ar
    33    28    31    1
    34    31    32   ar
    35    32    33   ar
    36    20    33   ar
    37    19    34   ar
    38    34    35   ar
    39    16    35   ar
    40     4    36    1
    41     4    37    1
    42     4    38    1
    43     5    39    1
    44     5    40    1
    45     6    41    1
    46     6    42    1
    47     7    43    1
    48     7    44    1
    49     7    45    1
    50     9    46    1
    51    10    47    1
    52    14    48    1
    53    15    49    1
    54    24    50    1
    55    24    51    1
    56    24    52    1
    57    25    53    1
    58    25    54    1
    59    25    55    1
    60    26    56    1
    61    26    57    1
    62    27    58    1
    63    27    59    1
    64    29    60    1
    65    29    61    1
    66    29    62    1
    67    30    63    1
    68    30    64    1
    69    30    65    1
    70    34    66    1
    71    35    67    1
    72    68     1    1
    73    68    33    1
    74    68    18    1
    75    68    11    1
@<TRIPOS>MOLECULE
*****
 68 75 0 0 0
SMALL
GASTEIGER

@<TRIPOS>ATOM
      1 O          -1.9648    1.3424   -1.9120 O.2     1  UNL1        0.0000
      2 C          -1.7466    1.7164   -3.0646 C.2     1  UNL1        0.0000
      3 N          -2.8167    1.6581   -3.9147 N.am    1  UNL1        0.0000
      4 C          -4.1694    1.6356   -3.3382 C.3     1  UNL1        0.0000
      5 C          -2.6484    0.8319   -5.1049 C.3     1  UNL1        0.0000
      6 C          -2.4910   -0.6455   -4.6319 C.3     1  UNL1        0.0000
      7 C          -2.6314   -1.6645   -5.7409 C.3     1  UNL1        0.0000
      8 C          -0.2796    1.9802   -3.4680 C.ar    1  UNL1        0.0000
      9 C           0.2780    2.4300   -4.6976 C.ar    1  UNL1        0.0000
     10 C           1.6955    2.5559   -4.8144 C.ar    1  UNL1        0.0000
     11 N           0.5953    1.7447   -2.4883 N.ar    1  UNL1        0.0000
     12 C           1.9384    1.8495   -2.5433 C.ar    1  UNL1        0.0000
     13 C           2.5470    2.2595   -3.7170 C.ar    1  UNL1        0.0000
     14 C           3.9612    2.3333   -3.7334 C.ar    1  UNL1        0.0000
     15 C           4.7157    2.0182   -2.5639 C.ar    1  UNL1        0.0000
     16 C           4.0638    1.5919   -1.3812 C.ar    1  UNL1        0.0000
     17 C           2.6827    1.5124   -1.4090 C.ar    1  UNL1        0.0000
     18 N           2.0083    1.0239   -0.3399 N.ar    1  UNL1        0.0000
     19 C           2.5670    0.5742    0.7922 C.ar    1  UNL1        0.0000
     20 C           1.5810   -0.0820    1.7177 C.ar    1  UNL1        0.0000
     21 N           1.9019   -0.9859    2.6847 N.ar    1  UNL1        0.0000
     22 C           0.9131   -1.7803    3.2268 C.ar    1  UNL1        0.0000
     23 C           1.2760   -2.9882    4.0773 C.3     1  UNL1        0.0000
     24 C           1.3755   -2.4984    5.5447 C.3     1  UNL1        0.0000
     25 C           2.6411   -3.5969    3.6907 C.3     1  UNL1        0.0000
     26 C           0.2201   -4.1114    3.7958 C.3     1  UNL1        0.0000
     27 C          -1.1928   -3.6285    4.1298 C.3     1  UNL1        0.0000
     28 C          -1.6135   -2.5007    3.1632 C.3     1  UNL1        0.0000
     29 C          -2.7666   -1.6797    3.7643 C.3     1  UNL1        0.0000
     30 C          -2.1156   -3.1471    1.8304 C.3     1  UNL1        0.0000
     31 C          -0.4460   -1.5746    2.8383 C.ar    1  UNL1        0.0000
     32 N          -0.7113   -0.6097    1.9555 N.ar    1  UNL1        0.0000
     33 N           0.2685    0.0358    1.3761 N.ar    1  UNL1        0.0000
     34 C           3.9685    0.6947    0.9236 C.ar    1  UNL1        0.0000
     35 C           4.7136    1.2225   -0.1726 C.ar    1  UNL1        0.0000
     36 H          -4.2223    2.2146   -2.3893 H       1  UNL1        0.0000
     37 H          -4.8885    2.0950   -4.0469 H       1  UNL1        0.0000
     38 H          -4.5199    0.6095   -3.1072 H       1  UNL1        0.0000
     39 H          -3.5511    0.9333   -5.7459 H       1  UNL1        0.0000
     40 H          -1.7778    1.1110   -5.7172 H       1  UNL1        0.0000
     41 H          -1.5147   -0.7816   -4.1121 H       1  UNL1        0.0000
     42 H          -3.2769   -0.9053   -3.8977 H       1  UNL1        0.0000
     43 H          -3.6184   -1.5351   -6.2323 H       1  UNL1        0.0000
     44 H          -2.6001   -2.6806   -5.2872 H       1  UNL1        0.0000
     45 H          -1.8125   -1.5600   -6.4770 H       1  UNL1        0.0000
     46 H          -0.3410    2.6730   -5.5440 H       1  UNL1        0.0000
     47 H           2.1246    2.8759   -5.7570 H       1  UNL1        0.0000
     48 H           4.4835    2.6244   -4.6371 H       1  UNL1        0.0000
     49 H           5.7974    2.0785   -2.5944 H       1  UNL1        0.0000
     50 H           2.1234   -1.6745    5.6023 H       1  UNL1        0.0000
     51 H           1.7059   -3.2966    6.2419 H       1  UNL1        0.0000
     52 H           0.4254   -2.0645    5.9164 H       1  UNL1        0.0000
     53 H           2.6502   -3.9114    2.6252 H       1  UNL1        0.0000
     54 H           2.8303   -4.5036    4.3120 H       1  UNL1        0.0000
     55 H           3.4757   -2.8882    3.8677 H       1  UNL1        0.0000
     56 H           0.2600   -4.3705    2.7100 H       1  UNL1        0.0000
     57 H           0.4445   -5.0509    4.3383 H       1  UNL1        0.0000
     58 H          -1.1994   -3.2896    5.1814 H       1  UNL1        0.0000
     59 H          -1.9333   -4.4571    4.0730 H       1  UNL1        0.0000
     60 H          -3.0765   -0.8732    3.0605 H       1  UNL1        0.0000
     61 H          -2.4375   -1.1980    4.7085 H       1  UNL1        0.0000
     62 H          -3.6527   -2.3172    3.9628 H       1  UNL1        0.0000
     63 H          -2.5228   -2.3882    1.1269 H       1  UNL1        0.0000
     64 H          -1.3122   -3.6884    1.2880 H       1  UNL1        0.0000
     65 H          -2.9315   -3.8785    2.0249 H       1  UNL1        0.0000
     66 H           4.4744    0.3825    1.8259 H       1  UNL1        0.0000
     67 H           5.7905    1.3114   -0.0936 H       1  UNL1        0.0000
     68 EU         -0.2436    0.9558   -0.6186 Eu      1  UNL1        0.0000
@<TRIPOS>BOND
     1     1     2    2
     2     2     3   am
     3     3     4    1
     4     3     5    1
     5     5     6    1
     6     6     7    1
     7     2     8    1
     8     8     9   ar
     9     9    10   ar
    10     8    11   ar
    11    11    12   ar
    12    12    13   ar
    13    10    13   ar
    14    13    14   ar
    15    14    15   ar
    16    15    16   ar
    17    16    17   ar
    18    12    17   ar
    19    17    18   ar
    20    18    19   ar
    21    19    20    1
    22    20    21   ar
    23    21    22   ar
    24    22    23    1
    25    23    24    1
    26    23    25    1
    27    23    26    1
    28    26    27    1
    29    27    28    1
    30    28    29    1
    31    28    30    1
    32    22    31   ar
    33    28    31    1
    34    31    32   ar
    35    32    33   ar
    36    20    33   ar
    37    19    34   ar
    38    34    35   ar
    39    16    35   ar
    40     4    36    1
    41     4    37    1
    42     4    38    1
    43     5    39    1
    44     5    40    1
    45     6    41    1
    46     6    42    1
    47     7    43    1
    48     7    44    1
    49     7    45    1
    50     9    46    1
    51    10    47    1
    52    14    48    1
    53    15    49    1
    54    24    50    1
    55    24    51    1
    56    24    52    1
    57    25    53    1
    58    25    54    1
    59    25    55    1
    60    26    56    1
    61    26    57    1
    62    27    58    1
    63    27    59    1
    64    29    60    1
    65    29    61    1
    66    29    62    1
    67    30    63    1
    68    30    64    1
    69    30    65    1
    70    34    66    1
    71    35    67    1
    72    68     1    1
    73    68    33    1
    74    68    18    1
    75    68    11    1
@<TRIPOS>MOLECULE
*****
 68 75 0 0 0
SMALL
GASTEIGER

@<TRIPOS>ATOM
      1 O          -1.9776    1.3255   -1.9773 O.2     1  UNL1        0.0000
      2 C          -1.7502    1.7159   -3.1263 C.2     1  UNL1        0.0000
      3 N          -2.8134    1.7037   -3.9839 N.am    1  UNL1        0.0000
      4 C          -4.1559    1.6867   -3.3947 C.3     1  UNL1        0.0000
      5 C          -2.6625    0.8653   -5.1740 C.3     1  UNL1        0.0000
      6 C          -2.5228   -0.6219   -4.7257 C.3     1  UNL1        0.0000
      7 C          -2.5879   -1.6196   -5.8689 C.3     1  UNL1        0.0000
      8 C          -0.2909    1.9762   -3.5042 C.ar    1  UNL1        0.0000
      9 C           0.2647    2.4699   -4.7098 C.ar    1  UNL1        0.0000
     10 C           1.6832    2.6271   -4.8099 C.ar    1  UNL1        0.0000
     11 N           0.5776    1.7203   -2.5205 N.ar    1  UNL1        0.0000
     12 C           1.9161    1.8424   -2.5638 C.ar    1  UNL1        0.0000
     13 C           2.5289    2.3077   -3.7153 C.ar    1  UNL1        0.0000
     14 C           3.9419    2.4159   -3.7140 C.ar    1  UNL1        0.0000
     15 C           4.6940    2.0495   -2.5597 C.ar    1  UNL1        0.0000
     16 C           4.0403    1.5542   -1.4058 C.ar    1  UNL1        0.0000
     17 C           2.6535    1.4609   -1.4356 C.ar    1  UNL1        0.0000
     18 N           1.9843    0.9647   -0.3849 N.ar    1  UNL1        0.0000
     19 C           2.5439    0.4850    0.7426 C.ar    1  UNL1        0.0000
     20 C           1.5637   -0.1516    1.6749 C.ar    1  UNL1        0.0000
     21 N           1.8942   -1.0245    2.6640 N.ar    1  UNL1        0.0000
     22 C           0.9133   -1.7927    3.2532 C.ar    1  UNL1        0.0000
     23 C           1.2961   -2.9835    4.1180 C.3     1  UNL1        0.0000
     24 C           1.4028   -2.5124    5.5806 C.3     1  UNL1        0.0000
     25 C           2.6647   -3.5580    3.6860 C.3     1  UNL1        0.0000
     26 C           0.2418   -4.1216    3.9382 C.3     1  UNL1        0.0000
     27 C          -1.1770   -3.6205    4.2324 C.3     1  UNL1        0.0000
     28 C          -1.6030   -2.5109    3.2429 C.3     1  UNL1        0.0000
     29 C          -2.7710   -1.7038    3.8402 C.3     1  UNL1        0.0000
     30 C          -2.0941   -3.1582    1.9143 C.3     1  UNL1        0.0000
     31 C          -0.4470   -1.5901    2.8818 C.ar    1  UNL1        0.0000
     32 N          -0.7203   -0.6517    1.9651 N.ar    1  UNL1        0.0000
     33 N           0.2536   -0.0263    1.3446 N.ar    1  UNL1        0.0000
     34 C           3.9470    0.5649    0.8579 C.ar    1  UNL1        0.0000
     35 C           4.6960    1.1197   -0.2226 C.ar    1  UNL1        0.0000
     36 H          -4.2201    2.4081   -2.5494 H       1  UNL1        0.0000
     37 H          -4.9086    2.0006   -4.1461 H       1  UNL1        0.0000
     38 H          -4.4273    0.6849   -3.0008 H       1  UNL1        0.0000
     39 H          -3.5652    0.9729   -5.8141 H       1  UNL1        0.0000
     40 H          -1.7904    1.1395   -5.7893 H       1  UNL1        0.0000
     41 H          -1.5621   -0.7600   -4.1802 H       1  UNL1        0.0000
     42 H          -3.3401   -0.8999   -4.0288 H       1  UNL1        0.0000
     43 H          -3.5719   -1.5419   -6.3769 H       1  UNL1        0.0000
     44 H          -2.4946   -2.6482   -5.4520 H       1  UNL1        0.0000
     45 H          -1.7665   -1.4468   -6.5905 H       1  UNL1        0.0000
     46 H          -0.3546    2.7275   -5.5531 H       1  UNL1        0.0000
     47 H           2.1117    2.9879   -5.7366 H       1  UNL1        0.0000
     48 H           4.4607    2.7685   -4.5971 H       1  UNL1        0.0000
     49 H           5.7743    2.1298   -2.5803 H       1  UNL1        0.0000
     50 H           2.1959   -1.7407    5.6763 H       1  UNL1        0.0000
     51 H           1.6534   -3.3659    6.2455 H       1  UNL1        0.0000
     52 H           0.4622   -2.0461    5.9360 H       1  UNL1        0.0000
     53 H           2.6413   -3.8711    2.6190 H       1  UNL1        0.0000
     54 H           2.9258   -4.4455    4.3023 H       1  UNL1        0.0000
     55 H           3.4734   -2.8060    3.8094 H       1  UNL1        0.0000
     56 H           0.2743   -4.5071    2.8936 H       1  UNL1        0.0000
     57 H           0.4823   -4.9733    4.6093 H       1  UNL1        0.0000
     58 H          -1.1968   -3.2446    5.2709 H       1  UNL1        0.0000
     59 H          -1.9119   -4.4555    4.1965 H       1  UNL1        0.0000
     60 H          -3.1128   -0.9176    3.1308 H       1  UNL1        0.0000
     61 H          -2.4552   -1.2054    4.7805 H       1  UNL1        0.0000
     62 H          -3.6347   -2.3682    4.0555 H       1  UNL1        0.0000
     63 H          -2.4561   -2.3854    1.1987 H       1  UNL1        0.0000
     64 H          -1.2834   -3.7197    1.4033 H       1  UNL1        0.0000
     65 H          -2.9419   -3.8526    2.0941 H       1  UNL1        0.0000
     66 H           4.4517    0.2008    1.7442 H       1  UNL1        0.0000
     67 H           5.7756    1.1777   -0.1465 H       1  UNL1        0.0000
     68 EU         -0.2761    0.8973   -0.6532 Eu      1  UNL1        0.0000
@<TRIPOS>BOND
     1     1     2    2
     2     2     3   am
     3     3     4    1
     4     3     5    1
     5     5     6    1
     6     6     7    1
     7     2     8    1
     8     8     9   ar
     9     9    10   ar
    10     8    11   ar
    11    11    12   ar
    12    12    13   ar
    13    10    13   ar
    14    13    14   ar
    15    14    15   ar
    16    15    16   ar
    17    16    17   ar
    18    12    17   ar
    19    17    18   ar
    20    18    19   ar
    21    19    20    1
    22    20    21   ar
    23    21    22   ar
    24    22    23    1
    25    23    24    1
    26    23    25    1
    27    23    26    1
    28    26    27    1
    29    27    28    1
    30    28    29    1
    31    28    30    1
    32    22    31   ar
    33    28    31    1
    34    31    32   ar
    35    32    33   ar
    36    20    33   ar
    37    19    34   ar
    38    34    35   ar
    39    16    35   ar
    40     4    36    1
    41     4    37    1
    42     4    38    1
    43     5    39    1
    44     5    40    1
    45     6    41    1
    46     6    42    1
    47     7    43    1
    48     7    44    1
    49     7    45    1
    50     9    46    1
    51    10    47    1
    52    14    48    1
    53    15    49    1
    54    24    50    1
    55    24    51    1
    56    24    52    1
    57    25    53    1
    58    25    54    1
    59    25    55    1
    60    26    56    1
    61    26    57    1
    62    27    58    1
    63    27    59    1
    64    29    60    1
    65    29    61    1
    66    29    62    1
    67    30    63    1
    68    30    64    1
    69    30    65    1
    70    34    66    1
    71    35    67    1
    72    68     1    1
    73    68    33    1
    74    68    18    1
    75    68    11    1
@<TRIPOS>MOLECULE
*****
 68 75 0 0 0
SMALL
GASTEIGER

@<TRIPOS>ATOM
      1 O          -1.9914    1.3155   -2.0187 O.2     1  UNL1        0.0000
      2 C          -1.7614    1.7279   -3.1589 C.2     1  UNL1        0.0000
      3 N          -2.8167    1.7357   -4.0315 N.am    1  UNL1        0.0000
      4 C          -4.1593    1.7034   -3.4464 C.3     1  UNL1        0.0000
      5 C          -2.6545    0.9080   -5.2307 C.3     1  UNL1        0.0000
      6 C          -2.5390   -0.5868   -4.8038 C.3     1  UNL1        0.0000
      7 C          -2.5538   -1.5607   -5.9706 C.3     1  UNL1        0.0000
      8 C          -0.3036    1.9947   -3.5235 C.ar    1  UNL1        0.0000
      9 C           0.2574    2.5160   -4.7136 C.ar    1  UNL1        0.0000
     10 C           1.6741    2.6828   -4.8048 C.ar    1  UNL1        0.0000
     11 N           0.5606    1.7104   -2.5392 N.ar    1  UNL1        0.0000
     12 C           1.8975    1.8363   -2.5762 C.ar    1  UNL1        0.0000
     13 C           2.5164    2.3343   -3.7157 C.ar    1  UNL1        0.0000
     14 C           3.9269    2.4497   -3.7066 C.ar    1  UNL1        0.0000
     15 C           4.6764    2.0506   -2.5624 C.ar    1  UNL1        0.0000
     16 C           4.0205    1.5227   -1.4248 C.ar    1  UNL1        0.0000
     17 C           2.6333    1.4318   -1.4608 C.ar    1  UNL1        0.0000
     18 N           1.9601    0.9151   -0.4155 N.ar    1  UNL1        0.0000
     19 C           2.5208    0.4193    0.7043 C.ar    1  UNL1        0.0000
     20 C           1.5457   -0.2149    1.6429 C.ar    1  UNL1        0.0000
     21 N           1.8863   -1.0657    2.6473 N.ar    1  UNL1        0.0000
     22 C           0.9148   -1.8164    3.2705 C.ar    1  UNL1        0.0000
     23 C           1.3115   -2.9850    4.1597 C.3     1  UNL1        0.0000
     24 C           1.4434   -2.4905    5.6136 C.3     1  UNL1        0.0000
     25 C           2.6740   -3.5622    3.7120 C.3     1  UNL1        0.0000
     26 C           0.2554   -4.1266    4.0266 C.3     1  UNL1        0.0000
     27 C          -1.1598   -3.6155    4.3226 C.3     1  UNL1        0.0000
     28 C          -1.5983   -2.5352    3.3058 C.3     1  UNL1        0.0000
     29 C          -2.7645   -1.7177    3.8944 C.3     1  UNL1        0.0000
     30 C          -2.0957   -3.2150    1.9972 C.3     1  UNL1        0.0000
     31 C          -0.4480   -1.6248    2.9062 C.ar    1  UNL1        0.0000
     32 N          -0.7308   -0.7130    1.9644 N.ar    1  UNL1        0.0000
     33 N           0.2338   -0.0954    1.3201 N.ar    1  UNL1        0.0000
     34 C           3.9240    0.4885    0.8164 C.ar    1  UNL1        0.0000
     35 C           4.6748    1.0592   -0.2531 C.ar    1  UNL1        0.0000
     36 H          -4.2472    2.4849   -2.6600 H       1  UNL1        0.0000
     37 H          -4.9250    1.9247   -4.2168 H       1  UNL1        0.0000
     38 H          -4.3798    0.7214   -2.9772 H       1  UNL1        0.0000
     39 H          -3.5402    1.0351   -5.8901 H       1  UNL1        0.0000
     40 H          -1.7655    1.1788   -5.8244 H       1  UNL1        0.0000
     41 H          -1.5990   -0.7372   -4.2270 H       1  UNL1        0.0000
     42 H          -3.3855   -0.8721   -4.1453 H       1  UNL1        0.0000
     43 H          -3.5193   -1.4827   -6.5130 H       1  UNL1        0.0000
     44 H          -2.4596   -2.5970   -5.5747 H       1  UNL1        0.0000
     45 H          -1.7096   -1.3608   -6.6595 H       1  UNL1        0.0000
     46 H          -0.3596    2.7982   -5.5521 H       1  UNL1        0.0000
     47 H           2.1055    3.0760   -5.7168 H       1  UNL1        0.0000
     48 H           4.4467    2.8344   -4.5751 H       1  UNL1        0.0000
     49 H           5.7562    2.1364   -2.5761 H       1  UNL1        0.0000
     50 H           2.2452   -1.7264    5.6907 H       1  UNL1        0.0000
     51 H           1.6951   -3.3386    6.2859 H       1  UNL1        0.0000
     52 H           0.5114   -2.0139    5.9773 H       1  UNL1        0.0000
     53 H           2.6296   -3.8920    2.6506 H       1  UNL1        0.0000
     54 H           2.9547   -4.4359    4.3379 H       1  UNL1        0.0000
     55 H           3.4800   -2.8021    3.8034 H       1  UNL1        0.0000
     56 H           0.2745   -4.5434    2.9944 H       1  UNL1        0.0000
     57 H           0.5049   -4.9564    4.7208 H       1  UNL1        0.0000
     58 H          -1.1670   -3.2074    5.3495 H       1  UNL1        0.0000
     59 H          -1.8959   -4.4497    4.3205 H       1  UNL1        0.0000
     60 H          -3.1171   -0.9486    3.1716 H       1  UNL1        0.0000
     61 H          -2.4449   -1.1975    4.8217 H       1  UNL1        0.0000
     62 H          -3.6232   -2.3812    4.1327 H       1  UNL1        0.0000
     63 H          -2.4602   -2.4586    1.2646 H       1  UNL1        0.0000
     64 H          -1.2846   -3.7853    1.4969 H       1  UNL1        0.0000
     65 H          -2.9418   -3.9046    2.1969 H       1  UNL1        0.0000
     66 H           4.4290    0.1048    1.6948 H       1  UNL1        0.0000
     67 H           5.7545    1.1109   -0.1770 H       1  UNL1        0.0000
     68 EU         -0.3040    0.8528   -0.6785 Eu      1  UNL1        0.0000
@<TRIPOS>BOND
     1     1     2    2
     2     2     3   am
     3     3     4    1
     4     3     5    1
     5     5     6    1
     6     6     7    1
     7     2     8    1
     8     8     9   ar
     9     9    10   ar
    10     8    11   ar
    11    11    12   ar
    12    12    13   ar
    13    10    13   ar
    14    13    14   ar
    15    14    15   ar
    16    15    16   ar
    17    16    17   ar
    18    12    17   ar
    19    17    18   ar
    20    18    19   ar
    21    19    20    1
    22    20    21   ar
    23    21    22   ar
    24    22    23    1
    25    23    24    1
    26    23    25    1
    27    23    26    1
    28    26    27    1
    29    27    28    1
    30    28    29    1
    31    28    30    1
    32    22    31   ar
    33    28    31    1
    34    31    32   ar
    35    32    33   ar
    36    20    33   ar
    37    19    34   ar
    38    34    35   ar
    39    16    35   ar
    40     4    36    1
    41     4    37    1
    42     4    38    1
    43     5    39    1
    44     5    40    1
    45     6    41    1
    46     6    42    1
    47     7    43    1
    48     7    44    1
    49     7    45    1
    50     9    46    1
    51    10    47    1
    52    14    48    1
    53    15    49    1
    54    24    50    1
    55    24    51    1
    56    24    52    1
    57    25    53    1
    58    25    54    1
    59    25    55    1
    60    26    56    1
    61    26    57    1
    62    27    58    1
    63    27    59    1
    64    29    60    1
    65    29    61    1
    66    29    62    1
    67    30    63    1
    68    30    64    1
    69    30    65    1
    70    34    66    1
    71    35    67    1
    72    68     1    1
    73    68    33    1
    74    68    18    1
    75    68    11    1
@<TRIPOS>MOLECULE
*****
 68 75 0 0 0
SMALL
GASTEIGER

@<TRIPOS>ATOM
      1 O          -2.0075    1.3073   -2.0518 O.2     1  UNL1        0.0000
      2 C          -1.7658    1.7362   -3.1832 C.2     1  UNL1        0.0000
      3 N          -2.8181    1.7529   -4.0668 N.am    1  UNL1        0.0000
      4 C          -4.1625    1.7096   -3.4893 C.3     1  UNL1        0.0000
      5 C          -2.6431    0.9450   -5.2768 C.3     1  UNL1        0.0000
      6 C          -2.5478   -0.5556   -4.8726 C.3     1  UNL1        0.0000
      7 C          -2.5252   -1.5060   -6.0584 C.3     1  UNL1        0.0000
      8 C          -0.3105    2.0085   -3.5334 C.ar    1  UNL1        0.0000
      9 C           0.2502    2.5520   -4.7119 C.ar    1  UNL1        0.0000
     10 C           1.6656    2.7204   -4.7969 C.ar    1  UNL1        0.0000
     11 N           0.5457    1.7078   -2.5499 N.ar    1  UNL1        0.0000
     12 C           1.8857    1.8300   -2.5864 C.ar    1  UNL1        0.0000
     13 C           2.5033    2.3522   -3.7139 C.ar    1  UNL1        0.0000
     14 C           3.9147    2.4675   -3.7021 C.ar    1  UNL1        0.0000
     15 C           4.6626    2.0485   -2.5648 C.ar    1  UNL1        0.0000
     16 C           4.0059    1.5018   -1.4365 C.ar    1  UNL1        0.0000
     17 C           2.6180    1.4111   -1.4753 C.ar    1  UNL1        0.0000
     18 N           1.9442    0.8797   -0.4390 N.ar    1  UNL1        0.0000
     19 C           2.5058    0.3714    0.6750 C.ar    1  UNL1        0.0000
     20 C           1.5342   -0.2670    1.6129 C.ar    1  UNL1        0.0000
     21 N           1.8819   -1.0999    2.6297 N.ar    1  UNL1        0.0000
     22 C           0.9161   -1.8397    3.2731 C.ar    1  UNL1        0.0000
     23 C           1.3245   -2.9866    4.1864 C.3     1  UNL1        0.0000
     24 C           1.4770   -2.4615    5.6280 C.3     1  UNL1        0.0000
     25 C           2.6805   -3.5743    3.7339 C.3     1  UNL1        0.0000
     26 C           0.2667   -4.1305    4.0961 C.3     1  UNL1        0.0000
     27 C          -1.1444   -3.6105    4.3938 C.3     1  UNL1        0.0000
     28 C          -1.5940   -2.5589    3.3511 C.3     1  UNL1        0.0000
     29 C          -2.7545   -1.7272    3.9334 C.3     1  UNL1        0.0000
     30 C          -2.1051   -3.2728    2.0683 C.3     1  UNL1        0.0000
     31 C          -0.4481   -1.6590    2.9122 C.ar    1  UNL1        0.0000
     32 N          -0.7398   -0.7658    1.9517 N.ar    1  UNL1        0.0000
     33 N           0.2188   -0.1504    1.2942 N.ar    1  UNL1        0.0000
     34 C           3.9092    0.4362    0.7884 C.ar    1  UNL1        0.0000
     35 C           4.6602    1.0201   -0.2733 C.ar    1  UNL1        0.0000
     36 H          -4.2690    2.5032   -2.7175 H       1  UNL1        0.0000
     37 H          -4.9289    1.9068   -4.2691 H       1  UNL1        0.0000
     38 H          -4.3725    0.7322   -3.0070 H       1  UNL1        0.0000
     39 H          -3.5152    1.0933   -5.9481 H       1  UNL1        0.0000
     40 H          -1.7413    1.2181   -5.8476 H       1  UNL1        0.0000
     41 H          -1.6270   -0.7203   -4.2697 H       1  UNL1        0.0000
     42 H          -3.4171   -0.8476   -4.2473 H       1  UNL1        0.0000
     43 H          -3.4713   -1.4162   -6.6320 H       1  UNL1        0.0000
     44 H          -2.4438   -2.5498   -5.6802 H       1  UNL1        0.0000
     45 H          -1.6579   -1.2934   -6.7142 H       1  UNL1        0.0000
     46 H          -0.3658    2.8518   -5.5461 H       1  UNL1        0.0000
     47 H           2.0985    3.1301   -5.7012 H       1  UNL1        0.0000
     48 H           4.4345    2.8682   -4.5632 H       1  UNL1        0.0000
     49 H           5.7427    2.1357   -2.5763 H       1  UNL1        0.0000
     50 H           2.2807   -1.6975    5.6796 H       1  UNL1        0.0000
     51 H           1.7380   -3.2960    6.3145 H       1  UNL1        0.0000
     52 H           0.5507   -1.9779    5.9971 H       1  UNL1        0.0000
     53 H           2.6219   -3.9256    2.6800 H       1  UNL1        0.0000
     54 H           2.9703   -4.4342    4.3743 H       1  UNL1        0.0000
     55 H           3.4866   -2.8117    3.7985 H       1  UNL1        0.0000
     56 H           0.2732   -4.5758    3.0759 H       1  UNL1        0.0000
     57 H           0.5237   -4.9423    4.8099 H       1  UNL1        0.0000
     58 H          -1.1398   -3.1745    5.4097 H       1  UNL1        0.0000
     59 H          -1.8811   -4.4442    4.4245 H       1  UNL1        0.0000
     60 H          -3.1168   -0.9765    3.1969 H       1  UNL1        0.0000
     61 H          -2.4260   -1.1847    4.8450 H       1  UNL1        0.0000
     62 H          -3.6103   -2.3856    4.1988 H       1  UNL1        0.0000
     63 H          -2.4781   -2.5356    1.3209 H       1  UNL1        0.0000
     64 H          -1.2982   -3.8547    1.5752 H       1  UNL1        0.0000
     65 H          -2.9478   -3.9584    2.2956 H       1  UNL1        0.0000
     66 H           4.4126    0.0412    1.6614 H       1  UNL1        0.0000
     67 H           5.7393    1.0693   -0.1967 H       1  UNL1        0.0000
     68 EU         -0.3245    0.8201   -0.7003 Eu      1  UNL1        0.0000
@<TRIPOS>BOND
     1     1     2    2
     2     2     3   am
     3     3     4    1
     4     3     5    1
     5     5     6    1
     6     6     7    1
     7     2     8    1
     8     8     9   ar
     9     9    10   ar
    10     8    11   ar
    11    11    12   ar
    12    12    13   ar
    13    10    13   ar
    14    13    14   ar
    15    14    15   ar
    16    15    16   ar
    17    16    17   ar
    18    12    17   ar
    19    17    18   ar
    20    18    19   ar
    21    19    20    1
    22    20    21   ar
    23    21    22   ar
    24    22    23    1
    25    23    24    1
    26    23    25    1
    27    23    26    1
    28    26    27    1
    29    27    28    1
    30    28    29    1
    31    28    30    1
    32    22    31   ar
    33    28    31    1
    34    31    32   ar
    35    32    33   ar
    36    20    33   ar
    37    19    34   ar
    38    34    35   ar
    39    16    35   ar
    40     4    36    1
    41     4    37    1
    42     4    38    1
    43     5    39    1
    44     5    40    1
    45     6    41    1
    46     6    42    1
    47     7    43    1
    48     7    44    1
    49     7    45    1
    50     9    46    1
    51    10    47    1
    52    14    48    1
    53    15    49    1
    54    24    50    1
    55    24    51    1
    56    24    52    1
    57    25    53    1
    58    25    54    1
    59    25    55    1
    60    26    56    1
    61    26    57    1
    62    27    58    1
    63    27    59    1
    64    29    60    1
    65    29    61    1
    66    29    62    1
    67    30    63    1
    68    30    64    1
    69    30    65    1
    70    34    66    1
    71    35    67    1
    72    68     1    1
    73    68    33    1
    74    68    18    1
    75    68    11    1
@<TRIPOS>MOLECULE
*****
 68 75 0 0 0
SMALL
GASTEIGER

@<TRIPOS>ATOM
      1 O          -2.0240    1.2966   -2.0777 O.2     1  UNL1        0.0000
      2 C          -1.7782    1.7373   -3.2045 C.2     1  UNL1        0.0000
      3 N          -2.8213    1.7695   -4.0940 N.am    1  UNL1        0.0000
      4 C          -4.1711    1.7151   -3.5313 C.3     1  UNL1        0.0000
      5 C          -2.6345    0.9841   -5.3179 C.3     1  UNL1        0.0000
      6 C          -2.5551   -0.5245   -4.9442 C.3     1  UNL1        0.0000
      7 C          -2.4971   -1.4493   -6.1488 C.3     1  UNL1        0.0000
      8 C          -0.3224    2.0121   -3.5433 C.ar    1  UNL1        0.0000
      9 C           0.2411    2.5807   -4.7107 C.ar    1  UNL1        0.0000
     10 C           1.6551    2.7520   -4.7895 C.ar    1  UNL1        0.0000
     11 N           0.5310    1.6926   -2.5630 N.ar    1  UNL1        0.0000
     12 C           1.8699    1.8214   -2.5945 C.ar    1  UNL1        0.0000
     13 C           2.4902    2.3614   -3.7127 C.ar    1  UNL1        0.0000
     14 C           3.9003    2.4785   -3.6968 C.ar    1  UNL1        0.0000
     15 C           4.6470    2.0410   -2.5666 C.ar    1  UNL1        0.0000
     16 C           3.9890    1.4780   -1.4481 C.ar    1  UNL1        0.0000
     17 C           2.5998    1.3878   -1.4893 C.ar    1  UNL1        0.0000
     18 N           1.9233    0.8439   -0.4600 N.ar    1  UNL1        0.0000
     19 C           2.4869    0.3281    0.6502 C.ar    1  UNL1        0.0000
     20 C           1.5198   -0.3121    1.5885 C.ar    1  UNL1        0.0000
     21 N           1.8752   -1.1297    2.6157 N.ar    1  UNL1        0.0000
     22 C           0.9177   -1.8625    3.2766 C.ar    1  UNL1        0.0000
     23 C           1.3368   -2.9882    4.2116 C.3     1  UNL1        0.0000
     24 C           1.5122   -2.4278    5.6372 C.3     1  UNL1        0.0000
     25 C           2.6856   -3.5886    3.7536 C.3     1  UNL1        0.0000
     26 C           0.2773   -4.1328    4.1654 C.3     1  UNL1        0.0000
     27 C          -1.1292   -3.6018    4.4636 C.3     1  UNL1        0.0000
     28 C          -1.5904   -2.5811    3.3953 C.3     1  UNL1        0.0000
     29 C          -2.7441   -1.7338    3.9680 C.3     1  UNL1        0.0000
     30 C          -2.1146   -3.3305    2.1384 C.3     1  UNL1        0.0000
     31 C          -0.4489   -1.6933    2.9210 C.ar    1  UNL1        0.0000
     32 N          -0.7492   -0.8177    1.9427 N.ar    1  UNL1        0.0000
     33 N           0.2029   -0.2007    1.2751 N.ar    1  UNL1        0.0000
     34 C           3.8898    0.3911    0.7642 C.ar    1  UNL1        0.0000
     35 C           4.6414    0.9828   -0.2911 C.ar    1  UNL1        0.0000
     36 H          -4.2874    2.5047   -2.7567 H       1  UNL1        0.0000
     37 H          -4.9315    1.9101   -4.3161 H       1  UNL1        0.0000
     38 H          -4.3767    0.7333   -3.0549 H       1  UNL1        0.0000
     39 H          -3.4938    1.1516   -6.0031 H       1  UNL1        0.0000
     40 H          -1.7217    1.2595   -5.8705 H       1  UNL1        0.0000
     41 H          -1.6527   -0.7050   -4.3182 H       1  UNL1        0.0000
     42 H          -3.4437   -0.8252   -4.3508 H       1  UNL1        0.0000
     43 H          -3.4228   -1.3431   -6.7516 H       1  UNL1        0.0000
     44 H          -2.4305   -2.5012   -5.7911 H       1  UNL1        0.0000
     45 H          -1.6074   -1.2255   -6.7705 H       1  UNL1        0.0000
     46 H          -0.3732    2.9000   -5.5390 H       1  UNL1        0.0000
     47 H           2.0898    3.1805   -5.6834 H       1  UNL1        0.0000
     48 H           4.4212    2.8958   -4.5494 H       1  UNL1        0.0000
     49 H           5.7266    2.1296   -2.5740 H       1  UNL1        0.0000
     50 H           2.3170   -1.6633    5.6578 H       1  UNL1        0.0000
     51 H           1.7833   -3.2452    6.3397 H       1  UNL1        0.0000
     52 H           0.5919   -1.9347    6.0086 H       1  UNL1        0.0000
     53 H           2.6122   -3.9659    2.7099 H       1  UNL1        0.0000
     54 H           2.9841   -4.4326    4.4114 H       1  UNL1        0.0000
     55 H           3.4936   -2.8258    3.7882 H       1  UNL1        0.0000
     56 H           0.2718   -4.6068    3.1584 H       1  UNL1        0.0000
     57 H           0.5421   -4.9234    4.8993 H       1  UNL1        0.0000
     58 H          -1.1117   -3.1353    5.4649 H       1  UNL1        0.0000
     59 H          -1.8662   -4.4335    4.5273 H       1  UNL1        0.0000
     60 H          -3.1159   -1.0038    3.2155 H       1  UNL1        0.0000
     61 H          -2.4041   -1.1668    4.8597 H       1  UNL1        0.0000
     62 H          -3.5955   -2.3852    4.2621 H       1  UNL1        0.0000
     63 H          -2.4957   -2.6138    1.3748 H       1  UNL1        0.0000
     64 H          -1.3130   -3.9263    1.6530 H       1  UNL1        0.0000
     65 H          -2.9543   -4.0092    2.3946 H       1  UNL1        0.0000
     66 H           4.3927   -0.0108    1.6346 H       1  UNL1        0.0000
     67 H           5.7203    1.0313   -0.2131 H       1  UNL1        0.0000
     68 EU         -0.3508    0.7859   -0.7185 Eu      1  UNL1        0.0000
@<TRIPOS>BOND
     1     1     2    2
     2     2     3   am
     3     3     4    1
     4     3     5    1
     5     5     6    1
     6     6     7    1
     7     2     8    1
     8     8     9   ar
     9     9    10   ar
    10     8    11   ar
    11    11    12   ar
    12    12    13   ar
    13    10    13   ar
    14    13    14   ar
    15    14    15   ar
    16    15    16   ar
    17    16    17   ar
    18    12    17   ar
    19    17    18   ar
    20    18    19   ar
    21    19    20    1
    22    20    21   ar
    23    21    22   ar
    24    22    23    1
    25    23    24    1
    26    23    25    1
    27    23    26    1
    28    26    27    1
    29    27    28    1
    30    28    29    1
    31    28    30    1
    32    22    31   ar
    33    28    31    1
    34    31    32   ar
    35    32    33   ar
    36    20    33   ar
    37    19    34   ar
    38    34    35   ar
    39    16    35   ar
    40     4    36    1
    41     4    37    1
    42     4    38    1
    43     5    39    1
    44     5    40    1
    45     6    41    1
    46     6    42    1
    47     7    43    1
    48     7    44    1
    49     7    45    1
    50     9    46    1
    51    10    47    1
    52    14    48    1
    53    15    49    1
    54    24    50    1
    55    24    51    1
    56    24    52    1
    57    25    53    1
    58    25    54    1
    59    25    55    1
    60    26    56    1
    61    26    57    1
    62    27    58    1
    63    27    59    1
    64    29    60    1
    65    29    61    1
    66    29    62    1
    67    30    63    1
    68    30    64    1
    69    30    65    1
    70    34    66    1
    71    35    67    1
    72    68     1    1
    73    68    33    1
    74    68    18    1
    75    68    11    1
@<TRIPOS>MOLECULE
*****
 68 75 0 0 0
SMALL
GASTEIGER

@<TRIPOS>ATOM
      1 O          -2.0242    1.2954   -2.0795 O.2     1  UNL1        0.0000
      2 C          -1.7783    1.7377   -3.2059 C.2     1  UNL1        0.0000
      3 N          -2.8210    1.7692   -4.0954 N.am    1  UNL1        0.0000
      4 C          -4.1713    1.7151   -3.5334 C.3     1  UNL1        0.0000
      5 C          -2.6341    0.9856   -5.3207 C.3     1  UNL1        0.0000
      6 C          -2.5554   -0.5231   -4.9475 C.3     1  UNL1        0.0000
      7 C          -2.4957   -1.4463   -6.1533 C.3     1  UNL1        0.0000
      8 C          -0.3216    2.0142   -3.5426 C.ar    1  UNL1        0.0000
      9 C           0.2407    2.5820   -4.7106 C.ar    1  UNL1        0.0000
     10 C           1.6549    2.7524   -4.7894 C.ar    1  UNL1        0.0000
     11 N           0.5300    1.6934   -2.5635 N.ar    1  UNL1        0.0000
     12 C           1.8702    1.8209   -2.5947 C.ar    1  UNL1        0.0000
     13 C           2.4898    2.3612   -3.7125 C.ar    1  UNL1        0.0000
     14 C           3.8998    2.4792   -3.6966 C.ar    1  UNL1        0.0000
     15 C           4.6463    2.0409   -2.5664 C.ar    1  UNL1        0.0000
     16 C           3.9872    1.4773   -1.4490 C.ar    1  UNL1        0.0000
     17 C           2.5986    1.3864   -1.4893 C.ar    1  UNL1        0.0000
     18 N           1.9225    0.8428   -0.4598 N.ar    1  UNL1        0.0000
     19 C           2.4857    0.3274    0.6496 C.ar    1  UNL1        0.0000
     20 C           1.5185   -0.3143    1.5897 C.ar    1  UNL1        0.0000
     21 N           1.8744   -1.1297    2.6142 N.ar    1  UNL1        0.0000
     22 C           0.9172   -1.8654    3.2758 C.ar    1  UNL1        0.0000
     23 C           1.3373   -2.9881    4.2123 C.3     1  UNL1        0.0000
     24 C           1.5140   -2.4260    5.6378 C.3     1  UNL1        0.0000
     25 C           2.6860   -3.5895    3.7547 C.3     1  UNL1        0.0000
     26 C           0.2781   -4.1329    4.1691 C.3     1  UNL1        0.0000
     27 C          -1.1285   -3.6015    4.4661 C.3     1  UNL1        0.0000
     28 C          -1.5915   -2.5822    3.3966 C.3     1  UNL1        0.0000
     29 C          -2.7433   -1.7343    3.9690 C.3     1  UNL1        0.0000
     30 C          -2.1150   -3.3331    2.1412 C.3     1  UNL1        0.0000
     31 C          -0.4501   -1.6925    2.9196 C.ar    1  UNL1        0.0000
     32 N          -0.7508   -0.8194    1.9456 N.ar    1  UNL1        0.0000
     33 N           0.2037   -0.2025    1.2722 N.ar    1  UNL1        0.0000
     34 C           3.8889    0.3891    0.7636 C.ar    1  UNL1        0.0000
     35 C           4.6405    0.9817   -0.2915 C.ar    1  UNL1        0.0000
     36 H          -4.2886    2.5046   -2.7581 H       1  UNL1        0.0000
     37 H          -4.9318    1.9104   -4.3180 H       1  UNL1        0.0000
     38 H          -4.3773    0.7333   -3.0574 H       1  UNL1        0.0000
     39 H          -3.4930    1.1545   -6.0053 H       1  UNL1        0.0000
     40 H          -1.7211    1.2615   -5.8714 H       1  UNL1        0.0000
     41 H          -1.6539   -0.7042   -4.3207 H       1  UNL1        0.0000
     42 H          -3.4451   -0.8242   -4.3558 H       1  UNL1        0.0000
     43 H          -3.4205   -1.3395   -6.7575 H       1  UNL1        0.0000
     44 H          -2.4298   -2.4987   -5.7966 H       1  UNL1        0.0000
     45 H          -1.6051   -1.2220   -6.7733 H       1  UNL1        0.0000
     46 H          -0.3733    2.9018   -5.5385 H       1  UNL1        0.0000
     47 H           2.0893    3.1828   -5.6827 H       1  UNL1        0.0000
     48 H           4.4206    2.8968   -4.5491 H       1  UNL1        0.0000
     49 H           5.7254    2.1292   -2.5738 H       1  UNL1        0.0000
     50 H           2.3189   -1.6616    5.6568 H       1  UNL1        0.0000
     51 H           1.7856   -3.2428    6.3411 H       1  UNL1        0.0000
     52 H           0.5939   -1.9325    6.0091 H       1  UNL1        0.0000
     53 H           2.6116   -3.9679    2.7115 H       1  UNL1        0.0000
     54 H           2.9849   -4.4326    4.4132 H       1  UNL1        0.0000
     55 H           3.4941   -2.8266    3.7877 H       1  UNL1        0.0000
     56 H           0.2718   -4.6081    3.1627 H       1  UNL1        0.0000
     57 H           0.5430   -4.9225    4.9036 H       1  UNL1        0.0000
     58 H          -1.1103   -3.1335    5.4680 H       1  UNL1        0.0000
     59 H          -1.8653   -4.4329    4.5325 H       1  UNL1        0.0000
     60 H          -3.1157   -1.0051    3.2165 H       1  UNL1        0.0000
     61 H          -2.4031   -1.1657    4.8606 H       1  UNL1        0.0000
     62 H          -3.5946   -2.3850    4.2652 H       1  UNL1        0.0000
     63 H          -2.4963   -2.6177    1.3779 H       1  UNL1        0.0000
     64 H          -1.3137   -3.9297    1.6571 H       1  UNL1        0.0000
     65 H          -2.9544   -4.0116    2.3997 H       1  UNL1        0.0000
     66 H           4.3921   -0.0134    1.6333 H       1  UNL1        0.0000
     67 H           5.7200    1.0298   -0.2139 H       1  UNL1        0.0000
     68 EU         -0.3508    0.7846   -0.7190 Eu      1  UNL1        0.0000
@<TRIPOS>BOND
     1     1     2    2
     2     2     3   am
     3     3     4    1
     4     3     5    1
     5     5     6    1
     6     6     7    1
     7     2     8    1
     8     8     9   ar
     9     9    10   ar
    10     8    11   ar
    11    11    12   ar
    12    12    13   ar
    13    10    13   ar
    14    13    14   ar
    15    14    15   ar
    16    15    16   ar
    17    16    17   ar
    18    12    17   ar
    19    17    18   ar
    20    18    19   ar
    21    19    20    1
    22    20    21   ar
    23    21    22   ar
    24    22    23    1
    25    23    24    1
    26    23    25    1
    27    23    26    1
    28    26    27    1
    29    27    28    1
    30    28    29    1
    31    28    30    1
    32    22    31   ar
    33    28    31    1
    34    31    32   ar
    35    32    33   ar
    36    20    33   ar
    37    19    34   ar
    38    34    35   ar
    39    16    35   ar
    40     4    36    1
    41     4    37    1
    42     4    38    1
    43     5    39    1
    44     5    40    1
    45     6    41    1
    46     6    42    1
    47     7    43    1
    48     7    44    1
    49     7    45    1
    50     9    46    1
    51    10    47    1
    52    14    48    1
    53    15    49    1
    54    24    50    1
    55    24    51    1
    56    24    52    1
    57    25    53    1
    58    25    54    1
    59    25    55    1
    60    26    56    1
    61    26    57    1
    62    27    58    1
    63    27    59    1
    64    29    60    1
    65    29    61    1
    66    29    62    1
    67    30    63    1
    68    30    64    1
    69    30    65    1
    70    34    66    1
    71    35    67    1
    72    68     1    1
    73    68    33    1
    74    68    18    1
    75    68    11    1
@<TRIPOS>MOLECULE
*****
 68 75 0 0 0
SMALL
GASTEIGER

@<TRIPOS>ATOM
      1 O          -2.0364    1.2871   -2.1014 O.2     1  UNL1        0.0000
      2 C          -1.7863    1.7408   -3.2219 C.2     1  UNL1        0.0000
      3 N          -2.8244    1.7827   -4.1178 N.am    1  UNL1        0.0000
      4 C          -4.1773    1.7182   -3.5647 C.3     1  UNL1        0.0000
      5 C          -2.6282    1.0191   -5.3539 C.3     1  UNL1        0.0000
      6 C          -2.5604   -0.4959   -5.0073 C.3     1  UNL1        0.0000
      7 C          -2.4734   -1.3964   -6.2286 C.3     1  UNL1        0.0000
      8 C          -0.3304    2.0210   -3.5504 C.ar    1  UNL1        0.0000
      9 C           0.2354    2.6054   -4.7085 C.ar    1  UNL1        0.0000
     10 C           1.6483    2.7754   -4.7831 C.ar    1  UNL1        0.0000
     11 N           0.5187    1.6851   -2.5720 N.ar    1  UNL1        0.0000
     12 C           1.8574    1.8128   -2.6005 C.ar    1  UNL1        0.0000
     13 C           2.4799    2.3680   -3.7109 C.ar    1  UNL1        0.0000
     14 C           3.8890    2.4850   -3.6922 C.ar    1  UNL1        0.0000
     15 C           4.6332    2.0323   -2.5674 C.ar    1  UNL1        0.0000
     16 C           3.9727    1.4560   -1.4577 C.ar    1  UNL1        0.0000
     17 C           2.5843    1.3656   -1.5001 C.ar    1  UNL1        0.0000
     18 N           1.9066    0.8127   -0.4770 N.ar    1  UNL1        0.0000
     19 C           2.4709    0.2898    0.6290 C.ar    1  UNL1        0.0000
     20 C           1.5077   -0.3530    1.5673 C.ar    1  UNL1        0.0000
     21 N           1.8705   -1.1595    2.5979 N.ar    1  UNL1        0.0000
     22 C           0.9227   -1.8877    3.2737 C.ar    1  UNL1        0.0000
     23 C           1.3492   -2.9903    4.2318 C.3     1  UNL1        0.0000
     24 C           1.5443   -2.3963    5.6420 C.3     1  UNL1        0.0000
     25 C           2.6909   -3.6036    3.7711 C.3     1  UNL1        0.0000
     26 C           0.2878   -4.1337    4.2272 C.3     1  UNL1        0.0000
     27 C          -1.1150   -3.5931    4.5235 C.3     1  UNL1        0.0000
     28 C          -1.5815   -2.6000    3.4325 C.3     1  UNL1        0.0000
     29 C          -2.7329   -1.7385    3.9956 C.3     1  UNL1        0.0000
     30 C          -2.1215   -3.3803    2.2006 C.3     1  UNL1        0.0000
     31 C          -0.4443   -1.7258    2.9246 C.ar    1  UNL1        0.0000
     32 N          -0.7548   -0.8638    1.9392 N.ar    1  UNL1        0.0000
     33 N           0.1904   -0.2476    1.2537 N.ar    1  UNL1        0.0000
     34 C           3.8738    0.3506    0.7441 C.ar    1  UNL1        0.0000
     35 C           4.6256    0.9502   -0.3054 C.ar    1  UNL1        0.0000
     36 H          -4.3026    2.4990   -2.7825 H       1  UNL1        0.0000
     37 H          -4.9337    1.9183   -4.3524 H       1  UNL1        0.0000
     38 H          -4.3826    0.7302   -3.1006 H       1  UNL1        0.0000
     39 H          -3.4783    1.2035   -6.0460 H       1  UNL1        0.0000
     40 H          -1.7082    1.2986   -5.8904 H       1  UNL1        0.0000
     41 H          -1.6730   -0.6906   -4.3643 H       1  UNL1        0.0000
     42 H          -3.4637   -0.8053   -4.4410 H       1  UNL1        0.0000
     43 H          -3.3819   -1.2752   -6.8543 H       1  UNL1        0.0000
     44 H          -2.4183   -2.4555   -5.8909 H       1  UNL1        0.0000
     45 H          -1.5666   -1.1627   -6.8216 H       1  UNL1        0.0000
     46 H          -0.3760    2.9388   -5.5332 H       1  UNL1        0.0000
     47 H           2.0850    3.2180   -5.6696 H       1  UNL1        0.0000
     48 H           4.4110    2.9146   -4.5381 H       1  UNL1        0.0000
     49 H           5.7123    2.1217   -2.5720 H       1  UNL1        0.0000
     50 H           2.3500   -1.6322    5.6344 H       1  UNL1        0.0000
     51 H           1.8245   -3.1973    6.3601 H       1  UNL1        0.0000
     52 H           0.6291   -1.8943    6.0146 H       1  UNL1        0.0000
     53 H           2.6030   -4.0044    2.7376 H       1  UNL1        0.0000
     54 H           2.9968   -4.4323    4.4447 H       1  UNL1        0.0000
     55 H           3.5001   -2.8412    3.7774 H       1  UNL1        0.0000
     56 H           0.2712   -4.6336    3.2333 H       1  UNL1        0.0000
     57 H           0.5590   -4.9050    4.9789 H       1  UNL1        0.0000
     58 H          -1.0863   -3.0992    5.5124 H       1  UNL1        0.0000
     59 H          -1.8519   -4.4210    4.6177 H       1  UNL1        0.0000
     60 H          -3.1132   -1.0275    3.2298 H       1  UNL1        0.0000
     61 H          -2.3840   -1.1490    4.8699 H       1  UNL1        0.0000
     62 H          -3.5808   -2.3819    4.3162 H       1  UNL1        0.0000
     63 H          -2.5088   -2.6824    1.4237 H       1  UNL1        0.0000
     64 H          -1.3247   -3.9893    1.7241 H       1  UNL1        0.0000
     65 H          -2.9589   -4.0515    2.4832 H       1  UNL1        0.0000
     66 H           4.3769   -0.0572    1.6116 H       1  UNL1        0.0000
     67 H           5.7050    0.9989   -0.2272 H       1  UNL1        0.0000
     68 EU         -0.3699    0.7574   -0.7345 Eu      1  UNL1        0.0000
@<TRIPOS>BOND
     1     1     2    2
     2     2     3   am
     3     3     4    1
     4     3     5    1
     5     5     6    1
     6     6     7    1
     7     2     8    1
     8     8     9   ar
     9     9    10   ar
    10     8    11   ar
    11    11    12   ar
    12    12    13   ar
    13    10    13   ar
    14    13    14   ar
    15    14    15   ar
    16    15    16   ar
    17    16    17   ar
    18    12    17   ar
    19    17    18   ar
    20    18    19   ar
    21    19    20    1
    22    20    21   ar
    23    21    22   ar
    24    22    23    1
    25    23    24    1
    26    23    25    1
    27    23    26    1
    28    26    27    1
    29    27    28    1
    30    28    29    1
    31    28    30    1
    32    22    31   ar
    33    28    31    1
    34    31    32   ar
    35    32    33   ar
    36    20    33   ar
    37    19    34   ar
    38    34    35   ar
    39    16    35   ar
    40     4    36    1
    41     4    37    1
    42     4    38    1
    43     5    39    1
    44     5    40    1
    45     6    41    1
    46     6    42    1
    47     7    43    1
    48     7    44    1
    49     7    45    1
    50     9    46    1
    51    10    47    1
    52    14    48    1
    53    15    49    1
    54    24    50    1
    55    24    51    1
    56    24    52    1
    57    25    53    1
    58    25    54    1
    59    25    55    1
    60    26    56    1
    61    26    57    1
    62    27    58    1
    63    27    59    1
    64    29    60    1
    65    29    61    1
    66    29    62    1
    67    30    63    1
    68    30    64    1
    69    30    65    1
    70    34    66    1
    71    35    67    1
    72    68     1    1
    73    68    33    1
    74    68    18    1
    75    68    11    1
@<TRIPOS>MOLECULE
*****
 68 75 0 0 0
SMALL
GASTEIGER

@<TRIPOS>ATOM
      1 O          -2.0495    1.2696   -2.1217 O.2     1  UNL1        0.0000
      2 C          -1.7953    1.7368   -3.2370 C.2     1  UNL1        0.0000
      3 N          -2.8297    1.7923   -4.1378 N.am    1  UNL1        0.0000
      4 C          -4.1854    1.7178   -3.5954 C.3     1  UNL1        0.0000
      5 C          -2.6247    1.0543   -5.3885 C.3     1  UNL1        0.0000
      6 C          -2.5654   -0.4670   -5.0730 C.3     1  UNL1        0.0000
      7 C          -2.4507   -1.3401   -6.3118 C.3     1  UNL1        0.0000
      8 C          -0.3392    2.0228   -3.5545 C.ar    1  UNL1        0.0000
      9 C           0.2276    2.6253   -4.7032 C.ar    1  UNL1        0.0000
     10 C           1.6396    2.7967   -4.7736 C.ar    1  UNL1        0.0000
     11 N           0.5067    1.6752   -2.5770 N.ar    1  UNL1        0.0000
     12 C           1.8463    1.8080   -2.6039 C.ar    1  UNL1        0.0000
     13 C           2.4692    2.3746   -3.7038 C.ar    1  UNL1        0.0000
     14 C           3.8782    2.4926   -3.6854 C.ar    1  UNL1        0.0000
     15 C           4.6223    2.0274   -2.5650 C.ar    1  UNL1        0.0000
     16 C           3.9594    1.4400   -1.4631 C.ar    1  UNL1        0.0000
     17 C           2.5694    1.3485   -1.5063 C.ar    1  UNL1        0.0000
     18 N           1.8903    0.7862   -0.4893 N.ar    1  UNL1        0.0000
     19 C           2.4572    0.2539    0.6114 C.ar    1  UNL1        0.0000
     20 C           1.4967   -0.3932    1.5496 C.ar    1  UNL1        0.0000
     21 N           1.8656   -1.1889    2.5868 N.ar    1  UNL1        0.0000
     22 C           0.9215   -1.9124    3.2732 C.ar    1  UNL1        0.0000
     23 C           1.3611   -2.9929    4.2512 C.3     1  UNL1        0.0000
     24 C           1.5773   -2.3636    5.6428 C.3     1  UNL1        0.0000
     25 C           2.6954   -3.6199    3.7872 C.3     1  UNL1        0.0000
     26 C           0.2977   -4.1331    4.2894 C.3     1  UNL1        0.0000
     27 C          -1.1003   -3.5822    4.5834 C.3     1  UNL1        0.0000
     28 C          -1.5805   -2.6209    3.4675 C.3     1  UNL1        0.0000
     29 C          -2.7216   -1.7431    4.0203 C.3     1  UNL1        0.0000
     30 C          -2.1283   -3.4323    2.2631 C.3     1  UNL1        0.0000
     31 C          -0.4494   -1.7577    2.9288 C.ar    1  UNL1        0.0000
     32 N          -0.7639   -0.9099    1.9296 N.ar    1  UNL1        0.0000
     33 N           0.1777   -0.2962    1.2388 N.ar    1  UNL1        0.0000
     34 C           3.8596    0.3144    0.7277 C.ar    1  UNL1        0.0000
     35 C           4.6125    0.9227   -0.3159 C.ar    1  UNL1        0.0000
     36 H          -4.3170    2.4875   -2.8032 H       1  UNL1        0.0000
     37 H          -4.9365    1.9292   -4.3854 H       1  UNL1        0.0000
     38 H          -4.3923    0.7226   -3.1478 H       1  UNL1        0.0000
     39 H          -3.4666    1.2567   -6.0856 H       1  UNL1        0.0000
     40 H          -1.6988    1.3399   -5.9102 H       1  UNL1        0.0000
     41 H          -1.6918   -0.6766   -4.4162 H       1  UNL1        0.0000
     42 H          -3.4812   -0.7861   -4.5328 H       1  UNL1        0.0000
     43 H          -3.3429   -1.2029   -6.9571 H       1  UNL1        0.0000
     44 H          -2.4049   -2.4064   -5.9964 H       1  UNL1        0.0000
     45 H          -1.5289   -1.0950   -6.8766 H       1  UNL1        0.0000
     46 H          -0.3807    2.9717   -5.5234 H       1  UNL1        0.0000
     47 H           2.0779    3.2527   -5.6523 H       1  UNL1        0.0000
     48 H           4.4008    2.9319   -4.5252 H       1  UNL1        0.0000
     49 H           5.7009    2.1169   -2.5677 H       1  UNL1        0.0000
     50 H           2.3835   -1.6010    5.6045 H       1  UNL1        0.0000
     51 H           1.8671   -3.1463    6.3771 H       1  UNL1        0.0000
     52 H           0.6680   -1.8514    6.0154 H       1  UNL1        0.0000
     53 H           2.5935   -4.0465    2.7652 H       1  UNL1        0.0000
     54 H           3.0098   -4.4318    4.4773 H       1  UNL1        0.0000
     55 H           3.5062   -2.8593    3.7635 H       1  UNL1        0.0000
     56 H           0.2704   -4.6612    3.3101 H       1  UNL1        0.0000
     57 H           0.5764   -4.8842    5.0596 H       1  UNL1        0.0000
     58 H          -1.0598   -3.0592    5.5573 H       1  UNL1        0.0000
     59 H          -1.8376   -4.4061    4.7092 H       1  UNL1        0.0000
     60 H          -3.1099   -1.0524    3.2401 H       1  UNL1        0.0000
     61 H          -2.3629   -1.1302    4.8747 H       1  UNL1        0.0000
     62 H          -3.5662   -2.3765    4.3675 H       1  UNL1        0.0000
     63 H          -2.5217   -2.7540    1.4723 H       1  UNL1        0.0000
     64 H          -1.3364   -4.0544    1.7956 H       1  UNL1        0.0000
     65 H          -2.9640   -4.0948    2.5715 H       1  UNL1        0.0000
     66 H           4.3624   -0.1011    1.5914 H       1  UNL1        0.0000
     67 H           5.6917    0.9708   -0.2362 H       1  UNL1        0.0000
     68 EU         -0.3863    0.7253   -0.7490 Eu      1  UNL1        0.0000
@<TRIPOS>BOND
     1     1     2    2
     2     2     3   am
     3     3     4    1
     4     3     5    1
     5     5     6    1
     6     6     7    1
     7     2     8    1
     8     8     9   ar
     9     9    10   ar
    10     8    11   ar
    11    11    12   ar
    12    12    13   ar
    13    10    13   ar
    14    13    14   ar
    15    14    15   ar
    16    15    16   ar
    17    16    17   ar
    18    12    17   ar
    19    17    18   ar
    20    18    19   ar
    21    19    20    1
    22    20    21   ar
    23    21    22   ar
    24    22    23    1
    25    23    24    1
    26    23    25    1
    27    23    26    1
    28    26    27    1
    29    27    28    1
    30    28    29    1
    31    28    30    1
    32    22    31   ar
    33    28    31    1
    34    31    32   ar
    35    32    33   ar
    36    20    33   ar
    37    19    34   ar
    38    34    35   ar
    39    16    35   ar
    40     4    36    1
    41     4    37    1
    42     4    38    1
    43     5    39    1
    44     5    40    1
    45     6    41    1
    46     6    42    1
    47     7    43    1
    48     7    44    1
    49     7    45    1
    50     9    46    1
    51    10    47    1
    52    14    48    1
    53    15    49    1
    54    24    50    1
    55    24    51    1
    56    24    52    1
    57    25    53    1
    58    25    54    1
    59    25    55    1
    60    26    56    1
    61    26    57    1
    62    27    58    1
    63    27    59    1
    64    29    60    1
    65    29    61    1
    66    29    62    1
    67    30    63    1
    68    30    64    1
    69    30    65    1
    70    34    66    1
    71    35    67    1
    72    68     1    1
    73    68    33    1
    74    68    18    1
    75    68    11    1
@<TRIPOS>MOLECULE
*****
 68 75 0 0 0
SMALL
GASTEIGER

@<TRIPOS>ATOM
      1 O          -2.0624    1.2483   -2.1449 O.2     1  UNL1        0.0000
      2 C          -1.8049    1.7291   -3.2554 C.2     1  UNL1        0.0000
      3 N          -2.8340    1.7975   -4.1594 N.am    1  UNL1        0.0000
      4 C          -4.1932    1.7142   -3.6250 C.3     1  UNL1        0.0000
      5 C          -2.6237    1.0833   -5.4198 C.3     1  UNL1        0.0000
      6 C          -2.5700   -0.4417   -5.1386 C.3     1  UNL1        0.0000
      7 C          -2.4305   -1.2844   -6.3955 C.3     1  UNL1        0.0000
      8 C          -0.3488    2.0200   -3.5639 C.ar    1  UNL1        0.0000
      9 C           0.2207    2.6407   -4.7019 C.ar    1  UNL1        0.0000
     10 C           1.6326    2.8158   -4.7665 C.ar    1  UNL1        0.0000
     11 N           0.4936    1.6620   -2.5878 N.ar    1  UNL1        0.0000
     12 C           1.8323    1.7967   -2.6087 C.ar    1  UNL1        0.0000
     13 C           2.4592    2.3806   -3.7032 C.ar    1  UNL1        0.0000
     14 C           3.8676    2.5015   -3.6776 C.ar    1  UNL1        0.0000
     15 C           4.6090    2.0251   -2.5623 C.ar    1  UNL1        0.0000
     16 C           3.9456    1.4249   -1.4684 C.ar    1  UNL1        0.0000
     17 C           2.5563    1.3303   -1.5163 C.ar    1  UNL1        0.0000
     18 N           1.8757    0.7578   -0.5049 N.ar    1  UNL1        0.0000
     19 C           2.4414    0.2216    0.5947 C.ar    1  UNL1        0.0000
     20 C           1.4844   -0.4287    1.5316 C.ar    1  UNL1        0.0000
     21 N           1.8596   -1.2143    2.5744 N.ar    1  UNL1        0.0000
     22 C           0.9221   -1.9352    3.2699 C.ar    1  UNL1        0.0000
     23 C           1.3721   -2.9948    4.2672 C.3     1  UNL1        0.0000
     24 C           1.6106   -2.3326    5.6401 C.3     1  UNL1        0.0000
     25 C           2.6979   -3.6376    3.8001 C.3     1  UNL1        0.0000
     26 C           0.3076   -4.1311    4.3483 C.3     1  UNL1        0.0000
     27 C          -1.0861   -3.5693    4.6392 C.3     1  UNL1        0.0000
     28 C          -1.5763   -2.6391    3.5003 C.3     1  UNL1        0.0000
     29 C          -2.7120   -1.7476    4.0422 C.3     1  UNL1        0.0000
     30 C          -2.1343   -3.4817    2.3238 C.3     1  UNL1        0.0000
     31 C          -0.4510   -1.7878    2.9305 C.ar    1  UNL1        0.0000
     32 N          -0.7726   -0.9527    1.9203 N.ar    1  UNL1        0.0000
     33 N           0.1643   -0.3377    1.2223 N.ar    1  UNL1        0.0000
     34 C           3.8443    0.2825    0.7127 C.ar    1  UNL1        0.0000
     35 C           4.5971    0.8986   -0.3248 C.ar    1  UNL1        0.0000
     36 H          -4.3295    2.4709   -2.8215 H       1  UNL1        0.0000
     37 H          -4.9406    1.9379   -4.4152 H       1  UNL1        0.0000
     38 H          -4.4012    0.7113   -3.1949 H       1  UNL1        0.0000
     39 H          -3.4585    1.3065   -6.1228 H       1  UNL1        0.0000
     40 H          -1.6940    1.3795   -5.9316 H       1  UNL1        0.0000
     41 H          -1.7075   -0.6647   -4.4715 H       1  UNL1        0.0000
     42 H          -3.4964   -0.7696   -4.6222 H       1  UNL1        0.0000
     43 H          -3.3083   -1.1301   -7.0561 H       1  UNL1        0.0000
     44 H          -2.3913   -2.3573   -6.1040 H       1  UNL1        0.0000
     45 H          -1.4966   -1.0261   -6.9343 H       1  UNL1        0.0000
     46 H          -0.3851    3.0008   -5.5185 H       1  UNL1        0.0000
     47 H           2.0715    3.2860   -5.6379 H       1  UNL1        0.0000
     48 H           4.3903    2.9528   -4.5118 H       1  UNL1        0.0000
     49 H           5.6877    2.1176   -2.5611 H       1  UNL1        0.0000
     50 H           2.4175   -1.5729    5.5715 H       1  UNL1        0.0000
     51 H           1.9100   -3.0976    6.3890 H       1  UNL1        0.0000
     52 H           0.7075   -1.8102    6.0136 H       1  UNL1        0.0000
     53 H           2.5809   -4.0897    2.7909 H       1  UNL1        0.0000
     54 H           3.0201   -4.4325    4.5064 H       1  UNL1        0.0000
     55 H           3.5107   -2.8808    3.7462 H       1  UNL1        0.0000
     56 H           0.2687   -4.6864    3.3849 H       1  UNL1        0.0000
     57 H           0.5927   -4.8606    5.1364 H       1  UNL1        0.0000
     58 H          -1.0345   -3.0187    5.5973 H       1  UNL1        0.0000
     59 H          -1.8232   -4.3877    4.7967 H       1  UNL1        0.0000
     60 H          -3.1089   -1.0774    3.2486 H       1  UNL1        0.0000
     61 H          -2.3445   -1.1125    4.8765 H       1  UNL1        0.0000
     62 H          -3.5524   -2.3718    4.4157 H       1  UNL1        0.0000
     63 H          -2.5337   -2.8238    1.5189 H       1  UNL1        0.0000
     64 H          -1.3465   -4.1169    1.8674 H       1  UNL1        0.0000
     65 H          -2.9668   -4.1350    2.6584 H       1  UNL1        0.0000
     66 H           4.3460   -0.1381    1.5748 H       1  UNL1        0.0000
     67 H           5.6758    0.9477   -0.2429 H       1  UNL1        0.0000
     68 EU         -0.4065    0.6951   -0.7648 Eu      1  UNL1        0.0000
@<TRIPOS>BOND
     1     1     2    2
     2     2     3   am
     3     3     4    1
     4     3     5    1
     5     5     6    1
     6     6     7    1
     7     2     8    1
     8     8     9   ar
     9     9    10   ar
    10     8    11   ar
    11    11    12   ar
    12    12    13   ar
    13    10    13   ar
    14    13    14   ar
    15    14    15   ar
    16    15    16   ar
    17    16    17   ar
    18    12    17   ar
    19    17    18   ar
    20    18    19   ar
    21    19    20    1
    22    20    21   ar
    23    21    22   ar
    24    22    23    1
    25    23    24    1
    26    23    25    1
    27    23    26    1
    28    26    27    1
    29    27    28    1
    30    28    29    1
    31    28    30    1
    32    22    31   ar
    33    28    31    1
    34    31    32   ar
    35    32    33   ar
    36    20    33   ar
    37    19    34   ar
    38    34    35   ar
    39    16    35   ar
    40     4    36    1
    41     4    37    1
    42     4    38    1
    43     5    39    1
    44     5    40    1
    45     6    41    1
    46     6    42    1
    47     7    43    1
    48     7    44    1
    49     7    45    1
    50     9    46    1
    51    10    47    1
    52    14    48    1
    53    15    49    1
    54    24    50    1
    55    24    51    1
    56    24    52    1
    57    25    53    1
    58    25    54    1
    59    25    55    1
    60    26    56    1
    61    26    57    1
    62    27    58    1
    63    27    59    1
    64    29    60    1
    65    29    61    1
    66    29    62    1
    67    30    63    1
    68    30    64    1
    69    30    65    1
    70    34    66    1
    71    35    67    1
    72    68     1    1
    73    68    33    1
    74    68    18    1
    75    68    11    1
@<TRIPOS>MOLECULE
*****
 68 75 0 0 0
SMALL
GASTEIGER

@<TRIPOS>ATOM
      1 O          -2.0735    1.2325   -2.1619 O.2     1  UNL1        0.0000
      2 C          -1.8134    1.7200   -3.2670 C.2     1  UNL1        0.0000
      3 N          -2.8399    1.8012   -4.1755 N.am    1  UNL1        0.0000
      4 C          -4.2002    1.7064   -3.6489 C.3     1  UNL1        0.0000
      5 C          -2.6222    1.1180   -5.4543 C.3     1  UNL1        0.0000
      6 C          -2.5734   -0.4138   -5.2039 C.3     1  UNL1        0.0000
      7 C          -2.4130   -1.2284   -6.4770 C.3     1  UNL1        0.0000
      8 C          -0.3579    2.0153   -3.5680 C.ar    1  UNL1        0.0000
      9 C           0.2123    2.6532   -4.6967 C.ar    1  UNL1        0.0000
     10 C           1.6224    2.8310   -4.7564 C.ar    1  UNL1        0.0000
     11 N           0.4832    1.6475   -2.5931 N.ar    1  UNL1        0.0000
     12 C           1.8213    1.7864   -2.6109 C.ar    1  UNL1        0.0000
     13 C           2.4478    2.3848   -3.6975 C.ar    1  UNL1        0.0000
     14 C           3.8558    2.5081   -3.6698 C.ar    1  UNL1        0.0000
     15 C           4.5964    2.0228   -2.5598 C.ar    1  UNL1        0.0000
     16 C           3.9327    1.4093   -1.4724 C.ar    1  UNL1        0.0000
     17 C           2.5435    1.3113   -1.5226 C.ar    1  UNL1        0.0000
     18 N           1.8628    0.7291   -0.5167 N.ar    1  UNL1        0.0000
     19 C           2.4299    0.1883    0.5797 C.ar    1  UNL1        0.0000
     20 C           1.4762   -0.4665    1.5149 C.ar    1  UNL1        0.0000
     21 N           1.8554   -1.2418    2.5627 N.ar    1  UNL1        0.0000
     22 C           0.9232   -1.9564    3.2696 C.ar    1  UNL1        0.0000
     23 C           1.3823   -2.9951    4.2845 C.3     1  UNL1        0.0000
     24 C           1.6420   -2.3027    5.6386 C.3     1  UNL1        0.0000
     25 C           2.6991   -3.6533    3.8138 C.3     1  UNL1        0.0000
     26 C           0.3162   -4.1260    4.4057 C.3     1  UNL1        0.0000
     27 C          -1.0735   -3.5540    4.6925 C.3     1  UNL1        0.0000
     28 C          -1.5714   -2.6556    3.5298 C.3     1  UNL1        0.0000
     29 C          -2.7041   -1.7517    4.0599 C.3     1  UNL1        0.0000
     30 C          -2.1381   -3.5272    2.3817 C.3     1  UNL1        0.0000
     31 C          -0.4507   -1.8169    2.9345 C.ar    1  UNL1        0.0000
     32 N          -0.7782   -0.9943    1.9152 N.ar    1  UNL1        0.0000
     33 N           0.1545   -0.3802    1.2089 N.ar    1  UNL1        0.0000
     34 C           3.8318    0.2526    0.6990 C.ar    1  UNL1        0.0000
     35 C           4.5828    0.8803   -0.3332 C.ar    1  UNL1        0.0000
     36 H          -4.3415    2.4495   -2.8332 H       1  UNL1        0.0000
     37 H          -4.9440    1.9434   -4.4387 H       1  UNL1        0.0000
     38 H          -4.4087    0.6957   -3.2376 H       1  UNL1        0.0000
     39 H          -3.4528    1.3547   -6.1541 H       1  UNL1        0.0000
     40 H          -1.6897    1.4178   -5.9508 H       1  UNL1        0.0000
     41 H          -1.7214   -0.6537   -4.5293 H       1  UNL1        0.0000
     42 H          -3.5072   -0.7541   -4.7087 H       1  UNL1        0.0000
     43 H          -3.2787   -1.0582   -7.1498 H       1  UNL1        0.0000
     44 H          -2.3789   -2.3084   -6.2106 H       1  UNL1        0.0000
     45 H          -1.4693   -0.9591   -6.9931 H       1  UNL1        0.0000
     46 H          -0.3914    3.0248   -5.5113 H       1  UNL1        0.0000
     47 H           2.0613    3.3126   -5.6204 H       1  UNL1        0.0000
     48 H           4.3793    2.9686   -4.4981 H       1  UNL1        0.0000
     49 H           5.6755    2.1159   -2.5555 H       1  UNL1        0.0000
     50 H           2.4493   -1.5467    5.5410 H       1  UNL1        0.0000
     51 H           1.9507   -3.0512    6.4002 H       1  UNL1        0.0000
     52 H           0.7449   -1.7705    6.0130 H       1  UNL1        0.0000
     53 H           2.5662   -4.1278    2.8169 H       1  UNL1        0.0000
     54 H           3.0281   -4.4331    4.5337 H       1  UNL1        0.0000
     55 H           3.5135   -2.9009    3.7313 H       1  UNL1        0.0000
     56 H           0.2667   -4.7073    3.4582 H       1  UNL1        0.0000
     57 H           0.6071   -4.8349    5.2104 H       1  UNL1        0.0000
     58 H          -1.0117   -2.9766    5.6344 H       1  UNL1        0.0000
     59 H          -1.8103   -4.3664    4.8792 H       1  UNL1        0.0000
     60 H          -3.1084   -1.1013    3.2538 H       1  UNL1        0.0000
     61 H          -2.3297   -1.0943    4.8753 H       1  UNL1        0.0000
     62 H          -3.5405   -2.3658    4.4576 H       1  UNL1        0.0000
     63 H          -2.5429   -2.8896    1.5635 H       1  UNL1        0.0000
     64 H          -1.3537   -4.1742    1.9367 H       1  UNL1        0.0000
     65 H          -2.9679   -4.1714    2.7398 H       1  UNL1        0.0000
     66 H           4.3339   -0.1712    1.5602 H       1  UNL1        0.0000
     67 H           5.6639    0.9284   -0.2490 H       1  UNL1        0.0000
     68 EU         -0.4192    0.6641   -0.7776 Eu      1  UNL1        0.0000
@<TRIPOS>BOND
     1     1     2    2
     2     2     3   am
     3     3     4    1
     4     3     5    1
     5     5     6    1
     6     6     7    1
     7     2     8    1
     8     8     9   ar
     9     9    10   ar
    10     8    11   ar
    11    11    12   ar
    12    12    13   ar
    13    10    13   ar
    14    13    14   ar
    15    14    15   ar
    16    15    16   ar
    17    16    17   ar
    18    12    17   ar
    19    17    18   ar
    20    18    19   ar
    21    19    20    1
    22    20    21   ar
    23    21    22   ar
    24    22    23    1
    25    23    24    1
    26    23    25    1
    27    23    26    1
    28    26    27    1
    29    27    28    1
    30    28    29    1
    31    28    30    1
    32    22    31   ar
    33    28    31    1
    34    31    32   ar
    35    32    33   ar
    36    20    33   ar
    37    19    34   ar
    38    34    35   ar
    39    16    35   ar
    40     4    36    1
    41     4    37    1
    42     4    38    1
    43     5    39    1
    44     5    40    1
    45     6    41    1
    46     6    42    1
    47     7    43    1
    48     7    44    1
    49     7    45    1
    50     9    46    1
    51    10    47    1
    52    14    48    1
    53    15    49    1
    54    24    50    1
    55    24    51    1
    56    24    52    1
    57    25    53    1
    58    25    54    1
    59    25    55    1
    60    26    56    1
    61    26    57    1
    62    27    58    1
    63    27    59    1
    64    29    60    1
    65    29    61    1
    66    29    62    1
    67    30    63    1
    68    30    64    1
    69    30    65    1
    70    34    66    1
    71    35    67    1
    72    68     1    1
    73    68    33    1
    74    68    18    1
    75    68    11    1
@<TRIPOS>MOLECULE
*****
 68 75 0 0 0
SMALL
GASTEIGER

@<TRIPOS>ATOM
      1 O          -2.0833    1.2162   -2.1760 O.2     1  UNL1        0.0000
      2 C          -1.8208    1.7125   -3.2771 C.2     1  UNL1        0.0000
      3 N          -2.8458    1.8028   -4.1874 N.am    1  UNL1        0.0000
      4 C          -4.2081    1.6968   -3.6684 C.3     1  UNL1        0.0000
      5 C          -2.6228    1.1464   -5.4801 C.3     1  UNL1        0.0000
      6 C          -2.5753   -0.3895   -5.2623 C.3     1  UNL1        0.0000
      7 C          -2.3986   -1.1763   -6.5507 C.3     1  UNL1        0.0000
      8 C          -0.3647    2.0102   -3.5737 C.ar    1  UNL1        0.0000
      9 C           0.2080    2.6611   -4.6920 C.ar    1  UNL1        0.0000
     10 C           1.6182    2.8402   -4.7485 C.ar    1  UNL1        0.0000
     11 N           0.4745    1.6323   -2.5999 N.ar    1  UNL1        0.0000
     12 C           1.8133    1.7736   -2.6139 C.ar    1  UNL1        0.0000
     13 C           2.4413    2.3836   -3.6934 C.ar    1  UNL1        0.0000
     14 C           3.8484    2.5086   -3.6632 C.ar    1  UNL1        0.0000
     15 C           4.5885    2.0136   -2.5563 C.ar    1  UNL1        0.0000
     16 C           3.9239    1.3927   -1.4739 C.ar    1  UNL1        0.0000
     17 C           2.5353    1.2924   -1.5279 C.ar    1  UNL1        0.0000
     18 N           1.8530    0.7036   -0.5276 N.ar    1  UNL1        0.0000
     19 C           2.4193    0.1599    0.5673 C.ar    1  UNL1        0.0000
     20 C           1.4676   -0.4957    1.5026 C.ar    1  UNL1        0.0000
     21 N           1.8519   -1.2622    2.5553 N.ar    1  UNL1        0.0000
     22 C           0.9236   -1.9739    3.2689 C.ar    1  UNL1        0.0000
     23 C           1.3909   -2.9954    4.2974 C.3     1  UNL1        0.0000
     24 C           1.6695   -2.2774    5.6345 C.3     1  UNL1        0.0000
     25 C           2.6993   -3.6676    3.8236 C.3     1  UNL1        0.0000
     26 C           0.3229   -4.1207    4.4549 C.3     1  UNL1        0.0000
     27 C          -1.0629   -3.5390    4.7381 C.3     1  UNL1        0.0000
     28 C          -1.5685   -2.6674    3.5590 C.3     1  UNL1        0.0000
     29 C          -2.6982   -1.7532    4.0753 C.3     1  UNL1        0.0000
     30 C          -2.1407   -3.5653    2.4321 C.3     1  UNL1        0.0000
     31 C          -0.4510   -1.8370    2.9358 C.ar    1  UNL1        0.0000
     32 N          -0.7838   -1.0297    1.9088 N.ar    1  UNL1        0.0000
     33 N           0.1449   -0.4156    1.1968 N.ar    1  UNL1        0.0000
     34 C           3.8209    0.2265    0.6908 C.ar    1  UNL1        0.0000
     35 C           4.5745    0.8564   -0.3370 C.ar    1  UNL1        0.0000
     36 H          -4.3545    2.4268   -2.8420 H       1  UNL1        0.0000
     37 H          -4.9489    1.9446   -4.4582 H       1  UNL1        0.0000
     38 H          -4.4139    0.6793   -3.2753 H       1  UNL1        0.0000
     39 H          -3.4495    1.3992   -6.1796 H       1  UNL1        0.0000
     40 H          -1.6883    1.4555   -5.9670 H       1  UNL1        0.0000
     41 H          -1.7309   -0.6427   -4.5832 H       1  UNL1        0.0000
     42 H          -3.5147   -0.7393   -4.7849 H       1  UNL1        0.0000
     43 H          -3.2548   -0.9913   -7.2315 H       1  UNL1        0.0000
     44 H          -2.3674   -2.2615   -6.3074 H       1  UNL1        0.0000
     45 H          -1.4479   -0.8959   -7.0481 H       1  UNL1        0.0000
     46 H          -0.3918    3.0440   -5.5020 H       1  UNL1        0.0000
     47 H           2.0586    3.3318   -5.6070 H       1  UNL1        0.0000
     48 H           4.3714    2.9788   -4.4867 H       1  UNL1        0.0000
     49 H           5.6664    2.1120   -2.5493 H       1  UNL1        0.0000
     50 H           2.4770   -1.5253    5.5118 H       1  UNL1        0.0000
     51 H           1.9867   -3.0111    6.4072 H       1  UNL1        0.0000
     52 H           0.7781   -1.7363    6.0098 H       1  UNL1        0.0000
     53 H           2.5529   -4.1614    2.8382 H       1  UNL1        0.0000
     54 H           3.0356   -4.4339    4.5548 H       1  UNL1        0.0000
     55 H           3.5151   -2.9197    3.7161 H       1  UNL1        0.0000
     56 H           0.2645   -4.7244    3.5224 H       1  UNL1        0.0000
     57 H           0.6195   -4.8111    5.2738 H       1  UNL1        0.0000
     58 H          -0.9920   -2.9382    5.6643 H       1  UNL1        0.0000
     59 H          -1.7996   -4.3453    4.9504 H       1  UNL1        0.0000
     60 H          -3.1090   -1.1228    3.2569 H       1  UNL1        0.0000
     61 H          -2.3187   -1.0781    4.8721 H       1  UNL1        0.0000
     62 H          -3.5312   -2.3598    4.4923 H       1  UNL1        0.0000
     63 H          -2.5503   -2.9461    1.6023 H       1  UNL1        0.0000
     64 H          -1.3589   -4.2223    1.9972 H       1  UNL1        0.0000
     65 H          -2.9681   -4.2019    2.8097 H       1  UNL1        0.0000
     66 H           4.3218   -0.2005    1.5502 H       1  UNL1        0.0000
     67 H           5.6531    0.9103   -0.2511 H       1  UNL1        0.0000
     68 EU         -0.4315    0.6362   -0.7884 Eu      1  UNL1        0.0000
@<TRIPOS>BOND
     1     1     2    2
     2     2     3   am
     3     3     4    1
     4     3     5    1
     5     5     6    1
     6     6     7    1
     7     2     8    1
     8     8     9   ar
     9     9    10   ar
    10     8    11   ar
    11    11    12   ar
    12    12    13   ar
    13    10    13   ar
    14    13    14   ar
    15    14    15   ar
    16    15    16   ar
    17    16    17   ar
    18    12    17   ar
    19    17    18   ar
    20    18    19   ar
    21    19    20    1
    22    20    21   ar
    23    21    22   ar
    24    22    23    1
    25    23    24    1
    26    23    25    1
    27    23    26    1
    28    26    27    1
    29    27    28    1
    30    28    29    1
    31    28    30    1
    32    22    31   ar
    33    28    31    1
    34    31    32   ar
    35    32    33   ar
    36    20    33   ar
    37    19    34   ar
    38    34    35   ar
    39    16    35   ar
    40     4    36    1
    41     4    37    1
    42     4    38    1
    43     5    39    1
    44     5    40    1
    45     6    41    1
    46     6    42    1
    47     7    43    1
    48     7    44    1
    49     7    45    1
    50     9    46    1
    51    10    47    1
    52    14    48    1
    53    15    49    1
    54    24    50    1
    55    24    51    1
    56    24    52    1
    57    25    53    1
    58    25    54    1
    59    25    55    1
    60    26    56    1
    61    26    57    1
    62    27    58    1
    63    27    59    1
    64    29    60    1
    65    29    61    1
    66    29    62    1
    67    30    63    1
    68    30    64    1
    69    30    65    1
    70    34    66    1
    71    35    67    1
    72    68     1    1
    73    68    33    1
    74    68    18    1
    75    68    11    1
@<TRIPOS>MOLECULE
*****
 68 75 0 0 0
SMALL
GASTEIGER

@<TRIPOS>ATOM
      1 O          -2.0893    1.1984   -2.1913 O.2     1  UNL1        0.0000
      2 C          -1.8257    1.7031   -3.2893 C.2     1  UNL1        0.0000
      3 N          -2.8500    1.8023   -4.1998 N.am    1  UNL1        0.0000
      4 C          -4.2122    1.6848   -3.6846 C.3     1  UNL1        0.0000
      5 C          -2.6244    1.1718   -5.5043 C.3     1  UNL1        0.0000
      6 C          -2.5768   -0.3679   -5.3168 C.3     1  UNL1        0.0000
      7 C          -2.3865   -1.1274   -6.6196 C.3     1  UNL1        0.0000
      8 C          -0.3693    2.0037   -3.5750 C.ar    1  UNL1        0.0000
      9 C           0.2053    2.6673   -4.6889 C.ar    1  UNL1        0.0000
     10 C           1.6138    2.8480   -4.7416 C.ar    1  UNL1        0.0000
     11 N           0.4662    1.6213   -2.6048 N.ar    1  UNL1        0.0000
     12 C           1.8047    1.7646   -2.6153 C.ar    1  UNL1        0.0000
     13 C           2.4348    2.3831   -3.6897 C.ar    1  UNL1        0.0000
     14 C           3.8408    2.5106   -3.6557 C.ar    1  UNL1        0.0000
     15 C           4.5792    2.0102   -2.5503 C.ar    1  UNL1        0.0000
     16 C           3.9132    1.3807   -1.4742 C.ar    1  UNL1        0.0000
     17 C           2.5246    1.2775   -1.5313 C.ar    1  UNL1        0.0000
     18 N           1.8416    0.6829   -0.5342 N.ar    1  UNL1        0.0000
     19 C           2.4091    0.1348    0.5581 C.ar    1  UNL1        0.0000
     20 C           1.4599   -0.5243    1.4909 C.ar    1  UNL1        0.0000
     21 N           1.8493   -1.2831    2.5468 N.ar    1  UNL1        0.0000
     22 C           0.9263   -1.9923    3.2691 C.ar    1  UNL1        0.0000
     23 C           1.3992   -2.9971    4.3108 C.3     1  UNL1        0.0000
     24 C           1.6956   -2.2549    5.6307 C.3     1  UNL1        0.0000
     25 C           2.6998   -3.6825    3.8343 C.3     1  UNL1        0.0000
     26 C           0.3298   -4.1150    4.5009 C.3     1  UNL1        0.0000
     27 C          -1.0526   -3.5239    4.7790 C.3     1  UNL1        0.0000
     28 C          -1.5644   -2.6792    3.5832 C.3     1  UNL1        0.0000
     29 C          -2.6917   -1.7545    4.0866 C.3     1  UNL1        0.0000
     30 C          -2.1419   -3.5997    2.4785 C.3     1  UNL1        0.0000
     31 C          -0.4505   -1.8635    2.9412 C.ar    1  UNL1        0.0000
     32 N          -0.7879   -1.0625    1.9053 N.ar    1  UNL1        0.0000
     33 N           0.1367   -0.4489    1.1860 N.ar    1  UNL1        0.0000
     34 C           3.8104    0.2022    0.6822 C.ar    1  UNL1        0.0000
     35 C           4.5636    0.8386   -0.3406 C.ar    1  UNL1        0.0000
     36 H          -4.3624    2.4022   -2.8481 H       1  UNL1        0.0000
     37 H          -4.9513    1.9428   -4.4721 H       1  UNL1        0.0000
     38 H          -4.4166    0.6604   -3.3081 H       1  UNL1        0.0000
     39 H          -3.4489    1.4375   -6.2011 H       1  UNL1        0.0000
     40 H          -1.6892    1.4888   -5.9839 H       1  UNL1        0.0000
     41 H          -1.7381   -0.6338   -4.6356 H       1  UNL1        0.0000
     42 H          -3.5202   -0.7276   -4.8546 H       1  UNL1        0.0000
     43 H          -3.2352   -0.9280   -7.3056 H       1  UNL1        0.0000
     44 H          -2.3567   -2.2175   -6.3992 H       1  UNL1        0.0000
     45 H          -1.4307   -0.8356   -7.1006 H       1  UNL1        0.0000
     46 H          -0.3922    3.0603   -5.4964 H       1  UNL1        0.0000
     47 H           2.0552    3.3493   -5.5945 H       1  UNL1        0.0000
     48 H           4.3651    2.9880   -4.4742 H       1  UNL1        0.0000
     49 H           5.6575    2.1098   -2.5407 H       1  UNL1        0.0000
     50 H           2.5035   -1.5069    5.4848 H       1  UNL1        0.0000
     51 H           2.0204   -2.9745    6.4133 H       1  UNL1        0.0000
     52 H           0.8096   -1.7049    6.0065 H       1  UNL1        0.0000
     53 H           2.5400   -4.1936    2.8600 H       1  UNL1        0.0000
     54 H           3.0418   -4.4362    4.5757 H       1  UNL1        0.0000
     55 H           3.5167   -2.9397    3.7034 H       1  UNL1        0.0000
     56 H           0.2628   -4.7393    3.5828 H       1  UNL1        0.0000
     57 H           0.6305   -4.7876    5.3328 H       1  UNL1        0.0000
     58 H          -0.9736   -2.9013    5.6907 H       1  UNL1        0.0000
     59 H          -1.7894   -4.3234    5.0151 H       1  UNL1        0.0000
     60 H          -3.1082   -1.1415    3.2579 H       1  UNL1        0.0000
     61 H          -2.3084   -1.0626    4.8671 H       1  UNL1        0.0000
     62 H          -3.5218   -2.3527    4.5214 H       1  UNL1        0.0000
     63 H          -2.5556   -2.9977    1.6383 H       1  UNL1        0.0000
     64 H          -1.3625   -4.2660    2.0537 H       1  UNL1        0.0000
     65 H          -2.9672   -4.2283    2.8741 H       1  UNL1        0.0000
     66 H           4.3111   -0.2270    1.5407 H       1  UNL1        0.0000
     67 H           5.6415    0.8934   -0.2530 H       1  UNL1        0.0000
     68 EU         -0.4432    0.6113   -0.7988 Eu      1  UNL1        0.0000
@<TRIPOS>BOND
     1     1     2    2
     2     2     3   am
     3     3     4    1
     4     3     5    1
     5     5     6    1
     6     6     7    1
     7     2     8    1
     8     8     9   ar
     9     9    10   ar
    10     8    11   ar
    11    11    12   ar
    12    12    13   ar
    13    10    13   ar
    14    13    14   ar
    15    14    15   ar
    16    15    16   ar
    17    16    17   ar
    18    12    17   ar
    19    17    18   ar
    20    18    19   ar
    21    19    20    1
    22    20    21   ar
    23    21    22   ar
    24    22    23    1
    25    23    24    1
    26    23    25    1
    27    23    26    1
    28    26    27    1
    29    27    28    1
    30    28    29    1
    31    28    30    1
    32    22    31   ar
    33    28    31    1
    34    31    32   ar
    35    32    33   ar
    36    20    33   ar
    37    19    34   ar
    38    34    35   ar
    39    16    35   ar
    40     4    36    1
    41     4    37    1
    42     4    38    1
    43     5    39    1
    44     5    40    1
    45     6    41    1
    46     6    42    1
    47     7    43    1
    48     7    44    1
    49     7    45    1
    50     9    46    1
    51    10    47    1
    52    14    48    1
    53    15    49    1
    54    24    50    1
    55    24    51    1
    56    24    52    1
    57    25    53    1
    58    25    54    1
    59    25    55    1
    60    26    56    1
    61    26    57    1
    62    27    58    1
    63    27    59    1
    64    29    60    1
    65    29    61    1
    66    29    62    1
    67    30    63    1
    68    30    64    1
    69    30    65    1
    70    34    66    1
    71    35    67    1
    72    68     1    1
    73    68    33    1
    74    68    18    1
    75    68    11    1
@<TRIPOS>MOLECULE
*****
 68 75 0 0 0
SMALL
GASTEIGER

@<TRIPOS>ATOM
      1 O          -2.0962    1.1801   -2.2043 O.2     1  UNL1        0.0000
      2 C          -1.8320    1.6912   -3.2988 C.2     1  UNL1        0.0000
      3 N          -2.8551    1.8005   -4.2098 N.am    1  UNL1        0.0000
      4 C          -4.2182    1.6718   -3.6994 C.3     1  UNL1        0.0000
      5 C          -2.6266    1.1963   -5.5260 C.3     1  UNL1        0.0000
      6 C          -2.5774   -0.3463   -5.3695 C.3     1  UNL1        0.0000
      7 C          -2.3755   -1.0773   -6.6871 C.3     1  UNL1        0.0000
      8 C          -0.3765    2.0006   -3.5810 C.ar    1  UNL1        0.0000
      9 C           0.2010    2.6747   -4.6863 C.ar    1  UNL1        0.0000
     10 C           1.6093    2.8567   -4.7351 C.ar    1  UNL1        0.0000
     11 N           0.4584    1.6082   -2.6101 N.ar    1  UNL1        0.0000
     12 C           1.7969    1.7547   -2.6175 C.ar    1  UNL1        0.0000
     13 C           2.4284    2.3826   -3.6862 C.ar    1  UNL1        0.0000
     14 C           3.8346    2.5125   -3.6490 C.ar    1  UNL1        0.0000
     15 C           4.5720    2.0061   -2.5459 C.ar    1  UNL1        0.0000
     16 C           3.9049    1.3689   -1.4753 C.ar    1  UNL1        0.0000
     17 C           2.5157    1.2625   -1.5357 C.ar    1  UNL1        0.0000
     18 N           1.8314    0.6619   -0.5436 N.ar    1  UNL1        0.0000
     19 C           2.3992    0.1139    0.5474 C.ar    1  UNL1        0.0000
     20 C           1.4514   -0.5501    1.4797 C.ar    1  UNL1        0.0000
     21 N           1.8444   -1.3013    2.5395 N.ar    1  UNL1        0.0000
     22 C           0.9260   -2.0086    3.2683 C.ar    1  UNL1        0.0000
     23 C           1.4058   -2.9974    4.3222 C.3     1  UNL1        0.0000
     24 C           1.7205   -2.2332    5.6252 C.3     1  UNL1        0.0000
     25 C           2.6985   -3.6966    3.8434 C.3     1  UNL1        0.0000
     26 C           0.3350   -4.1079    4.5445 C.3     1  UNL1        0.0000
     27 C          -1.0435   -3.5072    4.8176 C.3     1  UNL1        0.0000
     28 C          -1.5616   -2.6893    3.6054 C.3     1  UNL1        0.0000
     29 C          -2.6870   -1.7552    4.0968 C.3     1  UNL1        0.0000
     30 C          -2.1435   -3.6324    2.5233 C.3     1  UNL1        0.0000
     31 C          -0.4517   -1.8850    2.9422 C.ar    1  UNL1        0.0000
     32 N          -0.7936   -1.0944    1.8973 N.ar    1  UNL1        0.0000
     33 N           0.1279   -0.4806    1.1743 N.ar    1  UNL1        0.0000
     34 C           3.7997    0.1816    0.6733 C.ar    1  UNL1        0.0000
     35 C           4.5532    0.8225   -0.3434 C.ar    1  UNL1        0.0000
     36 H          -4.3727    2.3763   -2.8533 H       1  UNL1        0.0000
     37 H          -4.9570    1.9395   -4.4848 H       1  UNL1        0.0000
     38 H          -4.4203    0.6408   -3.3393 H       1  UNL1        0.0000
     39 H          -3.4490    1.4749   -6.2199 H       1  UNL1        0.0000
     40 H          -1.6911    1.5220   -5.9976 H       1  UNL1        0.0000
     41 H          -1.7429   -0.6244   -4.6882 H       1  UNL1        0.0000
     42 H          -3.5237   -0.7160   -4.9216 H       1  UNL1        0.0000
     43 H          -3.2182   -0.8634   -7.3762 H       1  UNL1        0.0000
     44 H          -2.3461   -2.1717   -6.4903 H       1  UNL1        0.0000
     45 H          -1.4159   -0.7741   -7.1536 H       1  UNL1        0.0000
     46 H          -0.3947    3.0756   -5.4900 H       1  UNL1        0.0000
     47 H           2.0507    3.3684   -5.5811 H       1  UNL1        0.0000
     48 H           4.3589    2.9992   -4.4630 H       1  UNL1        0.0000
     49 H           5.6500    2.1091   -2.5342 H       1  UNL1        0.0000
     50 H           2.5287   -1.4904    5.4567 H       1  UNL1        0.0000
     51 H           2.0526   -2.9397    6.4165 H       1  UNL1        0.0000
     52 H           0.8401   -1.6746    6.0016 H       1  UNL1        0.0000
     53 H           2.5261   -4.2249    2.8804 H       1  UNL1        0.0000
     54 H           3.0462   -4.4380    4.5946 H       1  UNL1        0.0000
     55 H           3.5169   -2.9598    3.6897 H       1  UNL1        0.0000
     56 H           0.2602   -4.7524    3.6411 H       1  UNL1        0.0000
     57 H           0.6407   -4.7628    5.3888 H       1  UNL1        0.0000
     58 H          -0.9563   -2.8637    5.7140 H       1  UNL1        0.0000
     59 H          -1.7799   -4.2997    5.0771 H       1  UNL1        0.0000
     60 H          -3.1090   -1.1599    3.2582 H       1  UNL1        0.0000
     61 H          -2.2998   -1.0474    4.8608 H       1  UNL1        0.0000
     62 H          -3.5135   -2.3455    4.5488 H       1  UNL1        0.0000
     63 H          -2.5612   -3.0478    1.6730 H       1  UNL1        0.0000
     64 H          -1.3657   -4.3071    2.1090 H       1  UNL1        0.0000
     65 H          -2.9660   -4.2531    2.9366 H       1  UNL1        0.0000
     66 H           4.2998   -0.2519    1.5316 H       1  UNL1        0.0000
     67 H           5.6326    0.8783   -0.2541 H       1  UNL1        0.0000
     68 EU         -0.4535    0.5870   -0.8096 Eu      1  UNL1        0.0000
@<TRIPOS>BOND
     1     1     2    2
     2     2     3   am
     3     3     4    1
     4     3     5    1
     5     5     6    1
     6     6     7    1
     7     2     8    1
     8     8     9   ar
     9     9    10   ar
    10     8    11   ar
    11    11    12   ar
    12    12    13   ar
    13    10    13   ar
    14    13    14   ar
    15    14    15   ar
    16    15    16   ar
    17    16    17   ar
    18    12    17   ar
    19    17    18   ar
    20    18    19   ar
    21    19    20    1
    22    20    21   ar
    23    21    22   ar
    24    22    23    1
    25    23    24    1
    26    23    25    1
    27    23    26    1
    28    26    27    1
    29    27    28    1
    30    28    29    1
    31    28    30    1
    32    22    31   ar
    33    28    31    1
    34    31    32   ar
    35    32    33   ar
    36    20    33   ar
    37    19    34   ar
    38    34    35   ar
    39    16    35   ar
    40     4    36    1
    41     4    37    1
    42     4    38    1
    43     5    39    1
    44     5    40    1
    45     6    41    1
    46     6    42    1
    47     7    43    1
    48     7    44    1
    49     7    45    1
    50     9    46    1
    51    10    47    1
    52    14    48    1
    53    15    49    1
    54    24    50    1
    55    24    51    1
    56    24    52    1
    57    25    53    1
    58    25    54    1
    59    25    55    1
    60    26    56    1
    61    26    57    1
    62    27    58    1
    63    27    59    1
    64    29    60    1
    65    29    61    1
    66    29    62    1
    67    30    63    1
    68    30    64    1
    69    30    65    1
    70    34    66    1
    71    35    67    1
    72    68     1    1
    73    68    33    1
    74    68    18    1
    75    68    11    1
@<TRIPOS>MOLECULE
*****
 68 75 0 0 0
SMALL
GASTEIGER

@<TRIPOS>ATOM
      1 O          -2.1053    1.1602   -2.2157 O.2     1  UNL1        0.0000
      2 C          -1.8390    1.6802   -3.3063 C.2     1  UNL1        0.0000
      3 N          -2.8616    1.7953   -4.2180 N.am    1  UNL1        0.0000
      4 C          -4.2243    1.6560   -3.7136 C.3     1  UNL1        0.0000
      5 C          -2.6298    1.2184   -5.5473 C.3     1  UNL1        0.0000
      6 C          -2.5781   -0.3260   -5.4214 C.3     1  UNL1        0.0000
      7 C          -2.3663   -1.0285   -6.7529 C.3     1  UNL1        0.0000
      8 C          -0.3813    1.9898   -3.5859 C.ar    1  UNL1        0.0000
      9 C           0.1967    2.6754   -4.6829 C.ar    1  UNL1        0.0000
     10 C           1.6028    2.8605   -4.7271 C.ar    1  UNL1        0.0000
     11 N           0.4515    1.5938   -2.6131 N.ar    1  UNL1        0.0000
     12 C           1.7886    1.7429   -2.6179 C.ar    1  UNL1        0.0000
     13 C           2.4207    2.3795   -3.6808 C.ar    1  UNL1        0.0000
     14 C           3.8259    2.5130   -3.6402 C.ar    1  UNL1        0.0000
     15 C           4.5630    2.0007   -2.5405 C.ar    1  UNL1        0.0000
     16 C           3.8958    1.3557   -1.4743 C.ar    1  UNL1        0.0000
     17 C           2.5075    1.2468   -1.5380 C.ar    1  UNL1        0.0000
     18 N           1.8229    0.6406   -0.5489 N.ar    1  UNL1        0.0000
     19 C           2.3905    0.0882    0.5397 C.ar    1  UNL1        0.0000
     20 C           1.4452   -0.5751    1.4722 C.ar    1  UNL1        0.0000
     21 N           1.8415   -1.3191    2.5350 N.ar    1  UNL1        0.0000
     22 C           0.9266   -2.0237    3.2695 C.ar    1  UNL1        0.0000
     23 C           1.4132   -2.9983    4.3333 C.3     1  UNL1        0.0000
     24 C           1.7448   -2.2132    5.6195 C.3     1  UNL1        0.0000
     25 C           2.6976   -3.7106    3.8519 C.3     1  UNL1        0.0000
     26 C           0.3413   -4.1006    4.5857 C.3     1  UNL1        0.0000
     27 C          -1.0339   -3.4915    4.8544 C.3     1  UNL1        0.0000
     28 C          -1.5580   -2.6992    3.6276 C.3     1  UNL1        0.0000
     29 C          -2.6820   -1.7569    4.1058 C.3     1  UNL1        0.0000
     30 C          -2.1435   -3.6629    2.5663 C.3     1  UNL1        0.0000
     31 C          -0.4519   -1.9052    2.9467 C.ar    1  UNL1        0.0000
     32 N          -0.7978   -1.1237    1.8972 N.ar    1  UNL1        0.0000
     33 N           0.1203   -0.5103    1.1679 N.ar    1  UNL1        0.0000
     34 C           3.7933    0.1604    0.6696 C.ar    1  UNL1        0.0000
     35 C           4.5452    0.8053   -0.3457 C.ar    1  UNL1        0.0000
     36 H          -4.3822    2.3485   -2.8574 H       1  UNL1        0.0000
     37 H          -4.9623    1.9334   -4.4957 H       1  UNL1        0.0000
     38 H          -4.4234    0.6194   -3.3689 H       1  UNL1        0.0000
     39 H          -3.4519    1.5096   -6.2366 H       1  UNL1        0.0000
     40 H          -1.6959    1.5536   -6.0124 H       1  UNL1        0.0000
     41 H          -1.7463   -0.6155   -4.7414 H       1  UNL1        0.0000
     42 H          -3.5264   -0.7060   -4.9861 H       1  UNL1        0.0000
     43 H          -3.2044   -0.8012   -7.4432 H       1  UNL1        0.0000
     44 H          -2.3359   -2.1266   -6.5791 H       1  UNL1        0.0000
     45 H          -1.4040   -0.7135   -7.2062 H       1  UNL1        0.0000
     46 H          -0.3959    3.0835   -5.4852 H       1  UNL1        0.0000
     47 H           2.0463    3.3779   -5.5696 H       1  UNL1        0.0000
     48 H           4.3516    3.0039   -4.4500 H       1  UNL1        0.0000
     49 H           5.6414    2.1064   -2.5255 H       1  UNL1        0.0000
     50 H           2.5534   -1.4758    5.4294 H       1  UNL1        0.0000
     51 H           2.0839   -2.9070    6.4190 H       1  UNL1        0.0000
     52 H           0.8700   -1.6459    5.9960 H       1  UNL1        0.0000
     53 H           2.5125   -4.2545    2.9001 H       1  UNL1        0.0000
     54 H           3.0509   -4.4405    4.6119 H       1  UNL1        0.0000
     55 H           3.5172   -2.9799    3.6766 H       1  UNL1        0.0000
     56 H           0.2583   -4.7638    3.6970 H       1  UNL1        0.0000
     57 H           0.6511   -4.7386    5.4415 H       1  UNL1        0.0000
     58 H          -0.9394   -2.8280    5.7356 H       1  UNL1        0.0000
     59 H          -1.7705   -4.2764    5.1355 H       1  UNL1        0.0000
     60 H          -3.1091   -1.1786    3.2578 H       1  UNL1        0.0000
     61 H          -2.2918   -1.0331    4.8534 H       1  UNL1        0.0000
     62 H          -3.5057   -2.3384    4.5740 H       1  UNL1        0.0000
     63 H          -2.5649   -3.0945    1.7069 H       1  UNL1        0.0000
     64 H          -1.3673   -4.3451    2.1617 H       1  UNL1        0.0000
     65 H          -2.9640   -4.2758    2.9953 H       1  UNL1        0.0000
     66 H           4.2914   -0.2732    1.5264 H       1  UNL1        0.0000
     67 H           5.6230    0.8653   -0.2534 H       1  UNL1        0.0000
     68 EU         -0.4637    0.5622   -0.8171 Eu      1  UNL1        0.0000
@<TRIPOS>BOND
     1     1     2    2
     2     2     3   am
     3     3     4    1
     4     3     5    1
     5     5     6    1
     6     6     7    1
     7     2     8    1
     8     8     9   ar
     9     9    10   ar
    10     8    11   ar
    11    11    12   ar
    12    12    13   ar
    13    10    13   ar
    14    13    14   ar
    15    14    15   ar
    16    15    16   ar
    17    16    17   ar
    18    12    17   ar
    19    17    18   ar
    20    18    19   ar
    21    19    20    1
    22    20    21   ar
    23    21    22   ar
    24    22    23    1
    25    23    24    1
    26    23    25    1
    27    23    26    1
    28    26    27    1
    29    27    28    1
    30    28    29    1
    31    28    30    1
    32    22    31   ar
    33    28    31    1
    34    31    32   ar
    35    32    33   ar
    36    20    33   ar
    37    19    34   ar
    38    34    35   ar
    39    16    35   ar
    40     4    36    1
    41     4    37    1
    42     4    38    1
    43     5    39    1
    44     5    40    1
    45     6    41    1
    46     6    42    1
    47     7    43    1
    48     7    44    1
    49     7    45    1
    50     9    46    1
    51    10    47    1
    52    14    48    1
    53    15    49    1
    54    24    50    1
    55    24    51    1
    56    24    52    1
    57    25    53    1
    58    25    54    1
    59    25    55    1
    60    26    56    1
    61    26    57    1
    62    27    58    1
    63    27    59    1
    64    29    60    1
    65    29    61    1
    66    29    62    1
    67    30    63    1
    68    30    64    1
    69    30    65    1
    70    34    66    1
    71    35    67    1
    72    68     1    1
    73    68    33    1
    74    68    18    1
    75    68    11    1
@<TRIPOS>MOLECULE
*****
 68 75 0 0 0
SMALL
GASTEIGER

@<TRIPOS>ATOM
      1 O          -2.1101    1.1439   -2.2271 O.2     1  UNL1        0.0000
      2 C          -1.8431    1.6694   -3.3153 C.2     1  UNL1        0.0000
      3 N          -2.8657    1.7904   -4.2274 N.am    1  UNL1        0.0000
      4 C          -4.2300    1.6384   -3.7258 C.3     1  UNL1        0.0000
      5 C          -2.6333    1.2412   -5.5668 C.3     1  UNL1        0.0000
      6 C          -2.5780   -0.3046   -5.4731 C.3     1  UNL1        0.0000
      7 C          -2.3580   -0.9768   -6.8191 C.3     1  UNL1        0.0000
      8 C          -0.3864    1.9821   -3.5872 C.ar    1  UNL1        0.0000
      9 C           0.1928    2.6763   -4.6791 C.ar    1  UNL1        0.0000
     10 C           1.5996    2.8650   -4.7186 C.ar    1  UNL1        0.0000
     11 N           0.4444    1.5813   -2.6154 N.ar    1  UNL1        0.0000
     12 C           1.7822    1.7339   -2.6169 C.ar    1  UNL1        0.0000
     13 C           2.4157    2.3784   -3.6746 C.ar    1  UNL1        0.0000
     14 C           3.8214    2.5133   -3.6322 C.ar    1  UNL1        0.0000
     15 C           4.5565    1.9961   -2.5343 C.ar    1  UNL1        0.0000
     16 C           3.8883    1.3450   -1.4733 C.ar    1  UNL1        0.0000
     17 C           2.4993    1.2333   -1.5389 C.ar    1  UNL1        0.0000
     18 N           1.8148    0.6208   -0.5541 N.ar    1  UNL1        0.0000
     19 C           2.3818    0.0667    0.5341 C.ar    1  UNL1        0.0000
     20 C           1.4369   -0.5983    1.4627 C.ar    1  UNL1        0.0000
     21 N           1.8369   -1.3384    2.5289 N.ar    1  UNL1        0.0000
     22 C           0.9256   -2.0402    3.2710 C.ar    1  UNL1        0.0000
     23 C           1.4194   -2.9988    4.3447 C.3     1  UNL1        0.0000
     24 C           1.7687   -2.1934    5.6137 C.3     1  UNL1        0.0000
     25 C           2.6953   -3.7247    3.8612 C.3     1  UNL1        0.0000
     26 C           0.3463   -4.0919    4.6280 C.3     1  UNL1        0.0000
     27 C          -1.0257   -3.4739    4.8906 C.3     1  UNL1        0.0000
     28 C          -1.5556   -2.7083    3.6490 C.3     1  UNL1        0.0000
     29 C          -2.6787   -1.7580    4.1142 C.3     1  UNL1        0.0000
     30 C          -2.1441   -3.6928    2.6093 C.3     1  UNL1        0.0000
     31 C          -0.4531   -1.9255    2.9500 C.ar    1  UNL1        0.0000
     32 N          -0.8026   -1.1530    1.8939 N.ar    1  UNL1        0.0000
     33 N           0.1132   -0.5389    1.1598 N.ar    1  UNL1        0.0000
     34 C           3.7824    0.1395    0.6660 C.ar    1  UNL1        0.0000
     35 C           4.5369    0.7906   -0.3452 C.ar    1  UNL1        0.0000
     36 H          -4.3925    2.3176   -2.8604 H       1  UNL1        0.0000
     37 H          -4.9681    1.9245   -4.5053 H       1  UNL1        0.0000
     38 H          -4.4251    0.5958   -3.3980 H       1  UNL1        0.0000
     39 H          -3.4557    1.5444   -6.2507 H       1  UNL1        0.0000
     40 H          -1.7010    1.5873   -6.0252 H       1  UNL1        0.0000
     41 H          -1.7482   -0.6062   -4.7960 H       1  UNL1        0.0000
     42 H          -3.5273   -0.6959   -5.0500 H       1  UNL1        0.0000
     43 H          -3.1928   -0.7359   -7.5089 H       1  UNL1        0.0000
     44 H          -2.3255   -2.0786   -6.6704 H       1  UNL1        0.0000
     45 H          -1.3942   -0.6495   -7.2603 H       1  UNL1        0.0000
     46 H          -0.3962    3.0943   -5.4783 H       1  UNL1        0.0000
     47 H           2.0416    3.3904   -5.5563 H       1  UNL1        0.0000
     48 H           4.3457    3.0114   -4.4387 H       1  UNL1        0.0000
     49 H           5.6339    2.1027   -2.5175 H       1  UNL1        0.0000
     50 H           2.5775   -1.4620    5.4021 H       1  UNL1        0.0000
     51 H           2.1151   -2.8747    6.4206 H       1  UNL1        0.0000
     52 H           0.8999   -1.6175    5.9910 H       1  UNL1        0.0000
     53 H           2.4971   -4.2840    2.9209 H       1  UNL1        0.0000
     54 H           3.0541   -4.4428    4.6296 H       1  UNL1        0.0000
     55 H           3.5159   -3.0008    3.6639 H       1  UNL1        0.0000
     56 H           0.2555   -4.7742    3.7547 H       1  UNL1        0.0000
     57 H           0.6603   -4.7121    5.4952 H       1  UNL1        0.0000
     58 H          -0.9237   -2.7903    5.7557 H       1  UNL1        0.0000
     59 H          -1.7619   -4.2507    5.1938 H       1  UNL1        0.0000
     60 H          -3.1107   -1.1970    3.2573 H       1  UNL1        0.0000
     61 H          -2.2860   -1.0191    4.8457 H       1  UNL1        0.0000
     62 H          -3.4992   -2.3311    4.5979 H       1  UNL1        0.0000
     63 H          -2.5690   -3.1413    1.7409 H       1  UNL1        0.0000
     64 H          -1.3686   -4.3820    2.2154 H       1  UNL1        0.0000
     65 H          -2.9619   -4.2979    3.0541 H       1  UNL1        0.0000
     66 H           4.2815   -0.2951    1.5222 H       1  UNL1        0.0000
     67 H           5.6143    0.8511   -0.2516 H       1  UNL1        0.0000
     68 EU         -0.4723    0.5390   -0.8246 Eu      1  UNL1        0.0000
@<TRIPOS>BOND
     1     1     2    2
     2     2     3   am
     3     3     4    1
     4     3     5    1
     5     5     6    1
     6     6     7    1
     7     2     8    1
     8     8     9   ar
     9     9    10   ar
    10     8    11   ar
    11    11    12   ar
    12    12    13   ar
    13    10    13   ar
    14    13    14   ar
    15    14    15   ar
    16    15    16   ar
    17    16    17   ar
    18    12    17   ar
    19    17    18   ar
    20    18    19   ar
    21    19    20    1
    22    20    21   ar
    23    21    22   ar
    24    22    23    1
    25    23    24    1
    26    23    25    1
    27    23    26    1
    28    26    27    1
    29    27    28    1
    30    28    29    1
    31    28    30    1
    32    22    31   ar
    33    28    31    1
    34    31    32   ar
    35    32    33   ar
    36    20    33   ar
    37    19    34   ar
    38    34    35   ar
    39    16    35   ar
    40     4    36    1
    41     4    37    1
    42     4    38    1
    43     5    39    1
    44     5    40    1
    45     6    41    1
    46     6    42    1
    47     7    43    1
    48     7    44    1
    49     7    45    1
    50     9    46    1
    51    10    47    1
    52    14    48    1
    53    15    49    1
    54    24    50    1
    55    24    51    1
    56    24    52    1
    57    25    53    1
    58    25    54    1
    59    25    55    1
    60    26    56    1
    61    26    57    1
    62    27    58    1
    63    27    59    1
    64    29    60    1
    65    29    61    1
    66    29    62    1
    67    30    63    1
    68    30    64    1
    69    30    65    1
    70    34    66    1
    71    35    67    1
    72    68     1    1
    73    68    33    1
    74    68    18    1
    75    68    11    1
@<TRIPOS>MOLECULE
*****
 68 75 0 0 0
SMALL
GASTEIGER

@<TRIPOS>ATOM
      1 O          -2.1141    1.1260   -2.2362 O.2     1  UNL1        0.0000
      2 C          -1.8473    1.6559   -3.3228 C.2     1  UNL1        0.0000
      3 N          -2.8700    1.7832   -4.2343 N.am    1  UNL1        0.0000
      4 C          -4.2344    1.6195   -3.7361 C.3     1  UNL1        0.0000
      5 C          -2.6366    1.2612   -5.5840 C.3     1  UNL1        0.0000
      6 C          -2.5774   -0.2851   -5.5225 C.3     1  UNL1        0.0000
      7 C          -2.3515   -0.9284   -6.8811 C.3     1  UNL1        0.0000
      8 C          -0.3905    1.9753   -3.5910 C.ar    1  UNL1        0.0000
      9 C           0.1905    2.6791   -4.6752 C.ar    1  UNL1        0.0000
     10 C           1.5963    2.8690   -4.7135 C.ar    1  UNL1        0.0000
     11 N           0.4398    1.5684   -2.6190 N.ar    1  UNL1        0.0000
     12 C           1.7758    1.7258   -2.6178 C.ar    1  UNL1        0.0000
     13 C           2.4118    2.3759   -3.6710 C.ar    1  UNL1        0.0000
     14 C           3.8156    2.5149   -3.6260 C.ar    1  UNL1        0.0000
     15 C           4.5502    1.9925   -2.5295 C.ar    1  UNL1        0.0000
     16 C           3.8818    1.3361   -1.4722 C.ar    1  UNL1        0.0000
     17 C           2.4943    1.2207   -1.5405 C.ar    1  UNL1        0.0000
     18 N           1.8081    0.6052   -0.5583 N.ar    1  UNL1        0.0000
     19 C           2.3761    0.0492    0.5293 C.ar    1  UNL1        0.0000
     20 C           1.4342   -0.6182    1.4589 C.ar    1  UNL1        0.0000
     21 N           1.8368   -1.3502    2.5276 N.ar    1  UNL1        0.0000
     22 C           0.9285   -2.0511    3.2732 C.ar    1  UNL1        0.0000
     23 C           1.4261   -2.9988    4.3554 C.3     1  UNL1        0.0000
     24 C           1.7910   -2.1767    5.6094 C.3     1  UNL1        0.0000
     25 C           2.6941   -3.7382    3.8705 C.3     1  UNL1        0.0000
     26 C           0.3515   -4.0832    4.6655 C.3     1  UNL1        0.0000
     27 C          -1.0171   -3.4567    4.9231 C.3     1  UNL1        0.0000
     28 C          -1.5516   -2.7148    3.6687 C.3     1  UNL1        0.0000
     29 C          -2.6746   -1.7582    4.1213 C.3     1  UNL1        0.0000
     30 C          -2.1424   -3.7181    2.6487 C.3     1  UNL1        0.0000
     31 C          -0.4515   -1.9409    2.9546 C.ar    1  UNL1        0.0000
     32 N          -0.8045   -1.1761    1.8935 N.ar    1  UNL1        0.0000
     33 N           0.1086   -0.5627    1.1558 N.ar    1  UNL1        0.0000
     34 C           3.7765    0.1247    0.6619 C.ar    1  UNL1        0.0000
     35 C           4.5305    0.7793   -0.3463 C.ar    1  UNL1        0.0000
     36 H          -4.3999    2.2866   -2.8619 H       1  UNL1        0.0000
     37 H          -4.9726    1.9137   -4.5119 H       1  UNL1        0.0000
     38 H          -4.4250    0.5715   -3.4231 H       1  UNL1        0.0000
     39 H          -3.4593    1.5759   -6.2625 H       1  UNL1        0.0000
     40 H          -1.7059    1.6177   -6.0370 H       1  UNL1        0.0000
     41 H          -1.7487   -0.5983   -4.8487 H       1  UNL1        0.0000
     42 H          -3.5271   -0.6869   -5.1092 H       1  UNL1        0.0000
     43 H          -3.1842   -0.6744   -7.5691 H       1  UNL1        0.0000
     44 H          -2.3169   -2.0329   -6.7563 H       1  UNL1        0.0000
     45 H          -1.3868   -0.5895   -7.3122 H       1  UNL1        0.0000
     46 H          -0.3961    3.1030   -5.4741 H       1  UNL1        0.0000
     47 H           2.0404    3.4009   -5.5450 H       1  UNL1        0.0000
     48 H           4.3406    3.0178   -4.4278 H       1  UNL1        0.0000
     49 H           5.6275    2.1024   -2.5096 H       1  UNL1        0.0000
     50 H           2.6002   -1.4509    5.3787 H       1  UNL1        0.0000
     51 H           2.1433   -2.8469    6.4225 H       1  UNL1        0.0000
     52 H           0.9274   -1.5927    5.9861 H       1  UNL1        0.0000
     53 H           2.4836   -4.3107    2.9408 H       1  UNL1        0.0000
     54 H           3.0570   -4.4461    4.6458 H       1  UNL1        0.0000
     55 H           3.5160   -3.0212    3.6537 H       1  UNL1        0.0000
     56 H           0.2537   -4.7817    3.8065 H       1  UNL1        0.0000
     57 H           0.6687   -4.6879    5.5423 H       1  UNL1        0.0000
     58 H          -0.9090   -2.7562    5.7738 H       1  UNL1        0.0000
     59 H          -1.7535   -4.2261    5.2450 H       1  UNL1        0.0000
     60 H          -3.1109   -1.2138    3.2559 H       1  UNL1        0.0000
     61 H          -2.2806   -1.0052    4.8376 H       1  UNL1        0.0000
     62 H          -3.4925   -2.3238    4.6182 H       1  UNL1        0.0000
     63 H          -2.5704   -3.1824    1.7722 H       1  UNL1        0.0000
     64 H          -1.3682   -4.4140    2.2646 H       1  UNL1        0.0000
     65 H          -2.9582   -4.3160    3.1072 H       1  UNL1        0.0000
     66 H           4.2757   -0.3116    1.5178 H       1  UNL1        0.0000
     67 H           5.6074    0.8420   -0.2511 H       1  UNL1        0.0000
     68 EU         -0.4785    0.5189   -0.8308 Eu      1  UNL1        0.0000
@<TRIPOS>BOND
     1     1     2    2
     2     2     3   am
     3     3     4    1
     4     3     5    1
     5     5     6    1
     6     6     7    1
     7     2     8    1
     8     8     9   ar
     9     9    10   ar
    10     8    11   ar
    11    11    12   ar
    12    12    13   ar
    13    10    13   ar
    14    13    14   ar
    15    14    15   ar
    16    15    16   ar
    17    16    17   ar
    18    12    17   ar
    19    17    18   ar
    20    18    19   ar
    21    19    20    1
    22    20    21   ar
    23    21    22   ar
    24    22    23    1
    25    23    24    1
    26    23    25    1
    27    23    26    1
    28    26    27    1
    29    27    28    1
    30    28    29    1
    31    28    30    1
    32    22    31   ar
    33    28    31    1
    34    31    32   ar
    35    32    33   ar
    36    20    33   ar
    37    19    34   ar
    38    34    35   ar
    39    16    35   ar
    40     4    36    1
    41     4    37    1
    42     4    38    1
    43     5    39    1
    44     5    40    1
    45     6    41    1
    46     6    42    1
    47     7    43    1
    48     7    44    1
    49     7    45    1
    50     9    46    1
    51    10    47    1
    52    14    48    1
    53    15    49    1
    54    24    50    1
    55    24    51    1
    56    24    52    1
    57    25    53    1
    58    25    54    1
    59    25    55    1
    60    26    56    1
    61    26    57    1
    62    27    58    1
    63    27    59    1
    64    29    60    1
    65    29    61    1
    66    29    62    1
    67    30    63    1
    68    30    64    1
    69    30    65    1
    70    34    66    1
    71    35    67    1
    72    68     1    1
    73    68    33    1
    74    68    18    1
    75    68    11    1
@<TRIPOS>MOLECULE
*****
 68 75 0 0 0
SMALL
GASTEIGER

@<TRIPOS>ATOM
      1 O          -2.1193    1.1083   -2.2448 O.2     1  UNL1        0.0000
      2 C          -1.8522    1.6431   -3.3284 C.2     1  UNL1        0.0000
      3 N          -2.8752    1.7768   -4.2397 N.am    1  UNL1        0.0000
      4 C          -4.2386    1.6015   -3.7448 C.3     1  UNL1        0.0000
      5 C          -2.6403    1.2806   -5.5991 C.3     1  UNL1        0.0000
      6 C          -2.5759   -0.2663   -5.5656 C.3     1  UNL1        0.0000
      7 C          -2.3458   -0.8824   -6.9370 C.3     1  UNL1        0.0000
      8 C          -0.3952    1.9656   -3.5916 C.ar    1  UNL1        0.0000
      9 C           0.1875    2.6780   -4.6708 C.ar    1  UNL1        0.0000
     10 C           1.5931    2.8690   -4.7049 C.ar    1  UNL1        0.0000
     11 N           0.4333    1.5554   -2.6209 N.ar    1  UNL1        0.0000
     12 C           1.7711    1.7136   -2.6164 C.ar    1  UNL1        0.0000
     13 C           2.4059    2.3721   -3.6648 C.ar    1  UNL1        0.0000
     14 C           3.8103    2.5131   -3.6166 C.ar    1  UNL1        0.0000
     15 C           4.5442    1.9882   -2.5220 C.ar    1  UNL1        0.0000
     16 C           3.8751    1.3249   -1.4699 C.ar    1  UNL1        0.0000
     17 C           2.4864    1.2067   -1.5412 C.ar    1  UNL1        0.0000
     18 N           1.8004    0.5858   -0.5631 N.ar    1  UNL1        0.0000
     19 C           2.3679    0.0297    0.5244 C.ar    1  UNL1        0.0000
     20 C           1.4292   -0.6406    1.4537 C.ar    1  UNL1        0.0000
     21 N           1.8332   -1.3659    2.5256 N.ar    1  UNL1        0.0000
     22 C           0.9283   -2.0638    3.2749 C.ar    1  UNL1        0.0000
     23 C           1.4316   -2.9990    4.3665 C.3     1  UNL1        0.0000
     24 C           1.8106   -2.1616    5.6058 C.3     1  UNL1        0.0000
     25 C           2.6920   -3.7497    3.8799 C.3     1  UNL1        0.0000
     26 C           0.3559   -4.0749    4.7001 C.3     1  UNL1        0.0000
     27 C          -1.0102   -3.4415    4.9519 C.3     1  UNL1        0.0000
     28 C          -1.5492   -2.7214    3.6866 C.3     1  UNL1        0.0000
     29 C          -2.6718   -1.7587    4.1276 C.3     1  UNL1        0.0000
     30 C          -2.1415   -3.7404    2.6839 C.3     1  UNL1        0.0000
     31 C          -0.4521   -1.9571    2.9586 C.ar    1  UNL1        0.0000
     32 N          -0.8081   -1.2008    1.8915 N.ar    1  UNL1        0.0000
     33 N           0.1034   -0.5880    1.1499 N.ar    1  UNL1        0.0000
     34 C           3.7690    0.1071    0.6604 C.ar    1  UNL1        0.0000
     35 C           4.5231    0.7665   -0.3445 C.ar    1  UNL1        0.0000
     36 H          -4.4082    2.2571   -2.8625 H       1  UNL1        0.0000
     37 H          -4.9778    1.9022   -4.5176 H       1  UNL1        0.0000
     38 H          -4.4247    0.5486   -3.4458 H       1  UNL1        0.0000
     39 H          -3.4643    1.6048   -6.2712 H       1  UNL1        0.0000
     40 H          -1.7124    1.6471   -6.0470 H       1  UNL1        0.0000
     41 H          -1.7469   -0.5889   -4.8973 H       1  UNL1        0.0000
     42 H          -3.5250   -0.6783   -5.1617 H       1  UNL1        0.0000
     43 H          -3.1775   -0.6173   -7.6216 H       1  UNL1        0.0000
     44 H          -2.3083   -1.9891   -6.8337 H       1  UNL1        0.0000
     45 H          -1.3813   -0.5327   -7.3595 H       1  UNL1        0.0000
     46 H          -0.3954    3.1077   -5.4677 H       1  UNL1        0.0000
     47 H           2.0377    3.4072   -5.5331 H       1  UNL1        0.0000
     48 H           4.3350    3.0216   -4.4160 H       1  UNL1        0.0000
     49 H           5.6208    2.1003   -2.5002 H       1  UNL1        0.0000
     50 H           2.6200   -1.4418    5.3583 H       1  UNL1        0.0000
     51 H           2.1684   -2.8224    6.4248 H       1  UNL1        0.0000
     52 H           0.9519   -1.5705    5.9828 H       1  UNL1        0.0000
     53 H           2.4710   -4.3334    2.9598 H       1  UNL1        0.0000
     54 H           3.0597   -4.4492    4.6615 H       1  UNL1        0.0000
     55 H           3.5145   -3.0391    3.6461 H       1  UNL1        0.0000
     56 H           0.2520   -4.7878    3.8535 H       1  UNL1        0.0000
     57 H           0.6760   -4.6660    5.5853 H       1  UNL1        0.0000
     58 H          -0.8964   -2.7252    5.7892 H       1  UNL1        0.0000
     59 H          -1.7464   -4.2035    5.2907 H       1  UNL1        0.0000
     60 H          -3.1114   -1.2283    3.2551 H       1  UNL1        0.0000
     61 H          -2.2762   -0.9944    4.8310 H       1  UNL1        0.0000
     62 H          -3.4873   -2.3174    4.6360 H       1  UNL1        0.0000
     63 H          -2.5722   -3.2185    1.8003 H       1  UNL1        0.0000
     64 H          -1.3677   -4.4414    2.3083 H       1  UNL1        0.0000
     65 H          -2.9552   -4.3319    3.1539 H       1  UNL1        0.0000
     66 H           4.2677   -0.3293    1.5162 H       1  UNL1        0.0000
     67 H           5.5998    0.8326   -0.2473 H       1  UNL1        0.0000
     68 EU         -0.4861    0.4963   -0.8367 Eu      1  UNL1        0.0000
@<TRIPOS>BOND
     1     1     2    2
     2     2     3   am
     3     3     4    1
     4     3     5    1
     5     5     6    1
     6     6     7    1
     7     2     8    1
     8     8     9   ar
     9     9    10   ar
    10     8    11   ar
    11    11    12   ar
    12    12    13   ar
    13    10    13   ar
    14    13    14   ar
    15    14    15   ar
    16    15    16   ar
    17    16    17   ar
    18    12    17   ar
    19    17    18   ar
    20    18    19   ar
    21    19    20    1
    22    20    21   ar
    23    21    22   ar
    24    22    23    1
    25    23    24    1
    26    23    25    1
    27    23    26    1
    28    26    27    1
    29    27    28    1
    30    28    29    1
    31    28    30    1
    32    22    31   ar
    33    28    31    1
    34    31    32   ar
    35    32    33   ar
    36    20    33   ar
    37    19    34   ar
    38    34    35   ar
    39    16    35   ar
    40     4    36    1
    41     4    37    1
    42     4    38    1
    43     5    39    1
    44     5    40    1
    45     6    41    1
    46     6    42    1
    47     7    43    1
    48     7    44    1
    49     7    45    1
    50     9    46    1
    51    10    47    1
    52    14    48    1
    53    15    49    1
    54    24    50    1
    55    24    51    1
    56    24    52    1
    57    25    53    1
    58    25    54    1
    59    25    55    1
    60    26    56    1
    61    26    57    1
    62    27    58    1
    63    27    59    1
    64    29    60    1
    65    29    61    1
    66    29    62    1
    67    30    63    1
    68    30    64    1
    69    30    65    1
    70    34    66    1
    71    35    67    1
    72    68     1    1
    73    68    33    1
    74    68    18    1
    75    68    11    1
@<TRIPOS>MOLECULE
*****
 68 75 0 0 0
SMALL
GASTEIGER

@<TRIPOS>ATOM
      1 O          -2.1235    1.0896   -2.2536 O.2     1  UNL1        0.0000
      2 C          -1.8560    1.6274   -3.3354 C.2     1  UNL1        0.0000
      3 N          -2.8805    1.7670   -4.2461 N.am    1  UNL1        0.0000
      4 C          -4.2431    1.5785   -3.7547 C.3     1  UNL1        0.0000
      5 C          -2.6449    1.2999   -5.6160 C.3     1  UNL1        0.0000
      6 C          -2.5738   -0.2462   -5.6142 C.3     1  UNL1        0.0000
      7 C          -2.3401   -0.8303   -6.9993 C.3     1  UNL1        0.0000
      8 C          -0.3994    1.9549   -3.5943 C.ar    1  UNL1        0.0000
      9 C           0.1844    2.6770   -4.6666 C.ar    1  UNL1        0.0000
     10 C           1.5892    2.8711   -4.6972 C.ar    1  UNL1        0.0000
     11 N           0.4283    1.5413   -2.6233 N.ar    1  UNL1        0.0000
     12 C           1.7664    1.7034   -2.6154 C.ar    1  UNL1        0.0000
     13 C           2.4007    2.3688   -3.6593 C.ar    1  UNL1        0.0000
     14 C           3.8050    2.5128   -3.6089 C.ar    1  UNL1        0.0000
     15 C           4.5380    1.9837   -2.5162 C.ar    1  UNL1        0.0000
     16 C           3.8692    1.3141   -1.4674 C.ar    1  UNL1        0.0000
     17 C           2.4823    1.1928   -1.5440 C.ar    1  UNL1        0.0000
     18 N           1.7963    0.5688   -0.5660 N.ar    1  UNL1        0.0000
     19 C           2.3635    0.0110    0.5204 C.ar    1  UNL1        0.0000
     20 C           1.4244   -0.6619    1.4478 C.ar    1  UNL1        0.0000
     21 N           1.8314   -1.3824    2.5214 N.ar    1  UNL1        0.0000
     22 C           0.9295   -2.0771    3.2774 C.ar    1  UNL1        0.0000
     23 C           1.4368   -2.9999    4.3774 C.3     1  UNL1        0.0000
     24 C           1.8307   -2.1458    5.6006 C.3     1  UNL1        0.0000
     25 C           2.6891   -3.7639    3.8908 C.3     1  UNL1        0.0000
     26 C           0.3596   -4.0656    4.7373 C.3     1  UNL1        0.0000
     27 C          -1.0033   -3.4240    4.9830 C.3     1  UNL1        0.0000
     28 C          -1.5463   -2.7283    3.7056 C.3     1  UNL1        0.0000
     29 C          -2.6691   -1.7595    4.1338 C.3     1  UNL1        0.0000
     30 C          -2.1407   -3.7651    2.7230 C.3     1  UNL1        0.0000
     31 C          -0.4514   -1.9744    2.9627 C.ar    1  UNL1        0.0000
     32 N          -0.8106   -1.2258    1.8905 N.ar    1  UNL1        0.0000
     33 N           0.0991   -0.6133    1.1455 N.ar    1  UNL1        0.0000
     34 C           3.7631    0.0905    0.6582 C.ar    1  UNL1        0.0000
     35 C           4.5173    0.7538   -0.3433 C.ar    1  UNL1        0.0000
     36 H          -4.4167    2.2213   -2.8639 H       1  UNL1        0.0000
     37 H          -4.9839    1.8862   -4.5233 H       1  UNL1        0.0000
     38 H          -4.4239    0.5204   -3.4707 H       1  UNL1        0.0000
     39 H          -3.4714    1.6340   -6.2802 H       1  UNL1        0.0000
     40 H          -1.7209    1.6795   -6.0584 H       1  UNL1        0.0000
     41 H          -1.7436   -0.5788   -4.9527 H       1  UNL1        0.0000
     42 H          -3.5214   -0.6703   -5.2197 H       1  UNL1        0.0000
     43 H          -3.1721   -0.5525   -7.6786 H       1  UNL1        0.0000
     44 H          -2.2981   -1.9389   -6.9214 H       1  UNL1        0.0000
     45 H          -1.3767   -0.4667   -7.4127 H       1  UNL1        0.0000
     46 H          -0.3949    3.1141   -5.4617 H       1  UNL1        0.0000
     47 H           2.0346    3.4159   -5.5201 H       1  UNL1        0.0000
     48 H           4.3303    3.0262   -4.4049 H       1  UNL1        0.0000
     49 H           5.6153    2.0970   -2.4919 H       1  UNL1        0.0000
     50 H           2.6402   -1.4327    5.3349 H       1  UNL1        0.0000
     51 H           2.1944   -2.7953    6.4258 H       1  UNL1        0.0000
     52 H           0.9776   -1.5463    5.9773 H       1  UNL1        0.0000
     53 H           2.4570   -4.3607    2.9820 H       1  UNL1        0.0000
     54 H           3.0611   -4.4528    4.6799 H       1  UNL1        0.0000
     55 H           3.5124   -3.0608    3.6385 H       1  UNL1        0.0000
     56 H           0.2492   -4.7946    3.9055 H       1  UNL1        0.0000
     57 H           0.6832   -4.6403    5.6319 H       1  UNL1        0.0000
     58 H          -0.8833   -2.6907    5.8048 H       1  UNL1        0.0000
     59 H          -1.7393   -4.1773    5.3407 H       1  UNL1        0.0000
     60 H          -3.1129   -1.2452    3.2539 H       1  UNL1        0.0000
     61 H          -2.2724   -0.9822    4.8221 H       1  UNL1        0.0000
     62 H          -3.4822   -2.3100    4.6551 H       1  UNL1        0.0000
     63 H          -2.5745   -3.2589    1.8320 H       1  UNL1        0.0000
     64 H          -1.3674   -4.4718    2.3576 H       1  UNL1        0.0000
     65 H          -2.9522   -4.3491    3.2066 H       1  UNL1        0.0000
     66 H           4.2610   -0.3471    1.5137 H       1  UNL1        0.0000
     67 H           5.5937    0.8206   -0.2442 H       1  UNL1        0.0000
     68 EU         -0.4922    0.4751   -0.8425 Eu      1  UNL1        0.0000
@<TRIPOS>BOND
     1     1     2    2
     2     2     3   am
     3     3     4    1
     4     3     5    1
     5     5     6    1
     6     6     7    1
     7     2     8    1
     8     8     9   ar
     9     9    10   ar
    10     8    11   ar
    11    11    12   ar
    12    12    13   ar
    13    10    13   ar
    14    13    14   ar
    15    14    15   ar
    16    15    16   ar
    17    16    17   ar
    18    12    17   ar
    19    17    18   ar
    20    18    19   ar
    21    19    20    1
    22    20    21   ar
    23    21    22   ar
    24    22    23    1
    25    23    24    1
    26    23    25    1
    27    23    26    1
    28    26    27    1
    29    27    28    1
    30    28    29    1
    31    28    30    1
    32    22    31   ar
    33    28    31    1
    34    31    32   ar
    35    32    33   ar
    36    20    33   ar
    37    19    34   ar
    38    34    35   ar
    39    16    35   ar
    40     4    36    1
    41     4    37    1
    42     4    38    1
    43     5    39    1
    44     5    40    1
    45     6    41    1
    46     6    42    1
    47     7    43    1
    48     7    44    1
    49     7    45    1
    50     9    46    1
    51    10    47    1
    52    14    48    1
    53    15    49    1
    54    24    50    1
    55    24    51    1
    56    24    52    1
    57    25    53    1
    58    25    54    1
    59    25    55    1
    60    26    56    1
    61    26    57    1
    62    27    58    1
    63    27    59    1
    64    29    60    1
    65    29    61    1
    66    29    62    1
    67    30    63    1
    68    30    64    1
    69    30    65    1
    70    34    66    1
    71    35    67    1
    72    68     1    1
    73    68    33    1
    74    68    18    1
    75    68    11    1
@<TRIPOS>MOLECULE
*****
 68 75 0 0 0
SMALL
GASTEIGER

@<TRIPOS>ATOM
      1 O          -2.1267    1.0729   -2.2609 O.2     1  UNL1        0.0000
      2 C          -1.8602    1.6164   -3.3409 C.2     1  UNL1        0.0000
      3 N          -2.8851    1.7584   -4.2504 N.am    1  UNL1        0.0000
      4 C          -4.2474    1.5590   -3.7613 C.3     1  UNL1        0.0000
      5 C          -2.6499    1.3153   -5.6279 C.3     1  UNL1        0.0000
      6 C          -2.5721   -0.2297   -5.6525 C.3     1  UNL1        0.0000
      7 C          -2.3363   -0.7884   -7.0476 C.3     1  UNL1        0.0000
      8 C          -0.4021    1.9472   -3.5968 C.ar    1  UNL1        0.0000
      9 C           0.1829    2.6756   -4.6649 C.ar    1  UNL1        0.0000
     10 C           1.5873    2.8707   -4.6926 C.ar    1  UNL1        0.0000
     11 N           0.4258    1.5290   -2.6254 N.ar    1  UNL1        0.0000
     12 C           1.7622    1.6936   -2.6159 C.ar    1  UNL1        0.0000
     13 C           2.3985    2.3641   -3.6562 C.ar    1  UNL1        0.0000
     14 C           3.8016    2.5108   -3.6033 C.ar    1  UNL1        0.0000
     15 C           4.5340    1.9785   -2.5112 C.ar    1  UNL1        0.0000
     16 C           3.8642    1.3050   -1.4666 C.ar    1  UNL1        0.0000
     17 C           2.4772    1.1813   -1.5435 C.ar    1  UNL1        0.0000
     18 N           1.7904    0.5522   -0.5697 N.ar    1  UNL1        0.0000
     19 C           2.3582   -0.0067    0.5157 C.ar    1  UNL1        0.0000
     20 C           1.4211   -0.6805    1.4426 C.ar    1  UNL1        0.0000
     21 N           1.8309   -1.3958    2.5194 N.ar    1  UNL1        0.0000
     22 C           0.9303   -2.0876    3.2793 C.ar    1  UNL1        0.0000
     23 C           1.4410   -3.0003    4.3863 C.3     1  UNL1        0.0000
     24 C           1.8464   -2.1338    5.5972 C.3     1  UNL1        0.0000
     25 C           2.6872   -3.7736    3.8993 C.3     1  UNL1        0.0000
     26 C           0.3632   -4.0582    4.7664 C.3     1  UNL1        0.0000
     27 C          -0.9975   -3.4102    5.0071 C.3     1  UNL1        0.0000
     28 C          -1.5439   -2.7332    3.7207 C.3     1  UNL1        0.0000
     29 C          -2.6665   -1.7598    4.1386 C.3     1  UNL1        0.0000
     30 C          -2.1393   -3.7834    2.7535 C.3     1  UNL1        0.0000
     31 C          -0.4514   -1.9879    2.9662 C.ar    1  UNL1        0.0000
     32 N          -0.8122   -1.2466    1.8892 N.ar    1  UNL1        0.0000
     33 N           0.0950   -0.6351    1.1402 N.ar    1  UNL1        0.0000
     34 C           3.7571    0.0755    0.6550 C.ar    1  UNL1        0.0000
     35 C           4.5118    0.7419   -0.3442 C.ar    1  UNL1        0.0000
     36 H          -4.4241    2.1923   -2.8644 H       1  UNL1        0.0000
     37 H          -4.9895    1.8713   -4.5268 H       1  UNL1        0.0000
     38 H          -4.4232    0.4971   -3.4886 H       1  UNL1        0.0000
     39 H          -3.4787    1.6572   -6.2854 H       1  UNL1        0.0000
     40 H          -1.7296    1.7061   -6.0664 H       1  UNL1        0.0000
     41 H          -1.7400   -0.5696   -4.9969 H       1  UNL1        0.0000
     42 H          -3.5179   -0.6640   -5.2645 H       1  UNL1        0.0000
     43 H          -3.1693   -0.5016   -7.7222 H       1  UNL1        0.0000
     44 H          -2.2900   -1.8979   -6.9896 H       1  UNL1        0.0000
     45 H          -1.3743   -0.4137   -7.4546 H       1  UNL1        0.0000
     46 H          -0.3951    3.1182   -5.4576 H       1  UNL1        0.0000
     47 H           2.0318    3.4217   -5.5124 H       1  UNL1        0.0000
     48 H           4.3265    3.0303   -4.3958 H       1  UNL1        0.0000
     49 H           5.6097    2.0956   -2.4851 H       1  UNL1        0.0000
     50 H           2.6563   -1.4262    5.3179 H       1  UNL1        0.0000
     51 H           2.2144   -2.7752    6.4269 H       1  UNL1        0.0000
     52 H           0.9975   -1.5279    5.9734 H       1  UNL1        0.0000
     53 H           2.4464   -4.3800    2.9990 H       1  UNL1        0.0000
     54 H           3.0623   -4.4549    4.6931 H       1  UNL1        0.0000
     55 H           3.5113   -3.0763    3.6329 H       1  UNL1        0.0000
     56 H           0.2476   -4.7993    3.9463 H       1  UNL1        0.0000
     57 H           0.6893   -4.6205    5.6681 H       1  UNL1        0.0000
     58 H          -0.8727   -2.6642    5.8169 H       1  UNL1        0.0000
     59 H          -1.7335   -4.1568    5.3790 H       1  UNL1        0.0000
     60 H          -3.1132   -1.2584    3.2530 H       1  UNL1        0.0000
     61 H          -2.2689   -0.9727    4.8152 H       1  UNL1        0.0000
     62 H          -3.4775   -2.3040    4.6697 H       1  UNL1        0.0000
     63 H          -2.5752   -3.2892    1.8569 H       1  UNL1        0.0000
     64 H          -1.3663   -4.4944    2.3957 H       1  UNL1        0.0000
     65 H          -2.9491   -4.3616    3.2468 H       1  UNL1        0.0000
     66 H           4.2549   -0.3626    1.5103 H       1  UNL1        0.0000
     67 H           5.5870    0.8114   -0.2432 H       1  UNL1        0.0000
     68 EU         -0.4968    0.4559   -0.8480 Eu      1  UNL1        0.0000
@<TRIPOS>BOND
     1     1     2    2
     2     2     3   am
     3     3     4    1
     4     3     5    1
     5     5     6    1
     6     6     7    1
     7     2     8    1
     8     8     9   ar
     9     9    10   ar
    10     8    11   ar
    11    11    12   ar
    12    12    13   ar
    13    10    13   ar
    14    13    14   ar
    15    14    15   ar
    16    15    16   ar
    17    16    17   ar
    18    12    17   ar
    19    17    18   ar
    20    18    19   ar
    21    19    20    1
    22    20    21   ar
    23    21    22   ar
    24    22    23    1
    25    23    24    1
    26    23    25    1
    27    23    26    1
    28    26    27    1
    29    27    28    1
    30    28    29    1
    31    28    30    1
    32    22    31   ar
    33    28    31    1
    34    31    32   ar
    35    32    33   ar
    36    20    33   ar
    37    19    34   ar
    38    34    35   ar
    39    16    35   ar
    40     4    36    1
    41     4    37    1
    42     4    38    1
    43     5    39    1
    44     5    40    1
    45     6    41    1
    46     6    42    1
    47     7    43    1
    48     7    44    1
    49     7    45    1
    50     9    46    1
    51    10    47    1
    52    14    48    1
    53    15    49    1
    54    24    50    1
    55    24    51    1
    56    24    52    1
    57    25    53    1
    58    25    54    1
    59    25    55    1
    60    26    56    1
    61    26    57    1
    62    27    58    1
    63    27    59    1
    64    29    60    1
    65    29    61    1
    66    29    62    1
    67    30    63    1
    68    30    64    1
    69    30    65    1
    70    34    66    1
    71    35    67    1
    72    68     1    1
    73    68    33    1
    74    68    18    1
    75    68    11    1
@<TRIPOS>MOLECULE
*****
 68 75 0 0 0
SMALL
GASTEIGER

@<TRIPOS>ATOM
      1 O          -2.1290    1.0541   -2.2684 O.2     1  UNL1        0.0000
      2 C          -1.8633    1.6016   -3.3466 C.2     1  UNL1        0.0000
      3 N          -2.8889    1.7488   -4.2548 N.am    1  UNL1        0.0000
      4 C          -4.2501    1.5380   -3.7678 C.3     1  UNL1        0.0000
      5 C          -2.6548    1.3314   -5.6408 C.3     1  UNL1        0.0000
      6 C          -2.5694   -0.2118   -5.6929 C.3     1  UNL1        0.0000
      7 C          -2.3328   -0.7430   -7.0985 C.3     1  UNL1        0.0000
      8 C          -0.4053    1.9360   -3.6000 C.ar    1  UNL1        0.0000
      9 C           0.1813    2.6717   -4.6631 C.ar    1  UNL1        0.0000
     10 C           1.5853    2.8690   -4.6876 C.ar    1  UNL1        0.0000
     11 N           0.4211    1.5163   -2.6301 N.ar    1  UNL1        0.0000
     12 C           1.7578    1.6834   -2.6169 C.ar    1  UNL1        0.0000
     13 C           2.3948    2.3584   -3.6531 C.ar    1  UNL1        0.0000
     14 C           3.7989    2.5079   -3.5971 C.ar    1  UNL1        0.0000
     15 C           4.5299    1.9724   -2.5079 C.ar    1  UNL1        0.0000
     16 C           3.8602    1.2944   -1.4664 C.ar    1  UNL1        0.0000
     17 C           2.4716    1.1685   -1.5442 C.ar    1  UNL1        0.0000
     18 N           1.7866    0.5349   -0.5742 N.ar    1  UNL1        0.0000
     19 C           2.3548   -0.0233    0.5116 C.ar    1  UNL1        0.0000
     20 C           1.4190   -0.6982    1.4382 C.ar    1  UNL1        0.0000
     21 N           1.8299   -1.4081    2.5182 N.ar    1  UNL1        0.0000
     22 C           0.9313   -2.0972    3.2827 C.ar    1  UNL1        0.0000
     23 C           1.4456   -2.9998    4.3960 C.3     1  UNL1        0.0000
     24 C           1.8626   -2.1214    5.5937 C.3     1  UNL1        0.0000
     25 C           2.6855   -3.7837    3.9084 C.3     1  UNL1        0.0000
     26 C           0.3675   -4.0498    4.7958 C.3     1  UNL1        0.0000
     27 C          -0.9912   -3.3955    5.0314 C.3     1  UNL1        0.0000
     28 C          -1.5414   -2.7379    3.7364 C.3     1  UNL1        0.0000
     29 C          -2.6643   -1.7602    4.1434 C.3     1  UNL1        0.0000
     30 C          -2.1378   -3.8021    2.7850 C.3     1  UNL1        0.0000
     31 C          -0.4507   -2.0005    2.9707 C.ar    1  UNL1        0.0000
     32 N          -0.8136   -1.2663    1.8893 N.ar    1  UNL1        0.0000
     33 N           0.0921   -0.6560    1.1364 N.ar    1  UNL1        0.0000
     34 C           3.7535    0.0611    0.6530 C.ar    1  UNL1        0.0000
     35 C           4.5074    0.7299   -0.3437 C.ar    1  UNL1        0.0000
     36 H          -4.4298    2.1613   -2.8644 H       1  UNL1        0.0000
     37 H          -4.9940    1.8549   -4.5296 H       1  UNL1        0.0000
     38 H          -4.4203    0.4724   -3.5069 H       1  UNL1        0.0000
     39 H          -3.4869    1.6806   -6.2902 H       1  UNL1        0.0000
     40 H          -1.7390    1.7345   -6.0755 H       1  UNL1        0.0000
     41 H          -1.7348   -0.5590   -5.0445 H       1  UNL1        0.0000
     42 H          -3.5128   -0.6568   -5.3112 H       1  UNL1        0.0000
     43 H          -3.1676   -0.4470   -7.7668 H       1  UNL1        0.0000
     44 H          -2.2814   -1.8531   -7.0616 H       1  UNL1        0.0000
     45 H          -1.3730   -0.3562   -7.4992 H       1  UNL1        0.0000
     46 H          -0.3929    3.1200   -5.4543 H       1  UNL1        0.0000
     47 H           2.0308    3.4247   -5.5035 H       1  UNL1        0.0000
     48 H           4.3235    3.0299   -4.3883 H       1  UNL1        0.0000
     49 H           5.6062    2.0909   -2.4795 H       1  UNL1        0.0000
     50 H           2.6727   -1.4197    5.3004 H       1  UNL1        0.0000
     51 H           2.2348   -2.7544    6.4278 H       1  UNL1        0.0000
     52 H           1.0181   -1.5090    5.9689 H       1  UNL1        0.0000
     53 H           2.4359   -4.3998    3.0172 H       1  UNL1        0.0000
     54 H           3.0639   -4.4571    4.7075 H       1  UNL1        0.0000
     55 H           3.5102   -3.0928    3.6278 H       1  UNL1        0.0000
     56 H           0.2465   -4.8030    3.9878 H       1  UNL1        0.0000
     57 H           0.6959   -4.5993    5.7044 H       1  UNL1        0.0000
     58 H          -0.8619   -2.6367    5.8286 H       1  UNL1        0.0000
     59 H          -1.7269   -4.1350    5.4176 H       1  UNL1        0.0000
     60 H          -3.1139   -1.2724    3.2516 H       1  UNL1        0.0000
     61 H          -2.2657   -0.9622    4.8064 H       1  UNL1        0.0000
     62 H          -3.4732   -2.2977    4.6847 H       1  UNL1        0.0000
     63 H          -2.5759   -3.3206    1.8827 H       1  UNL1        0.0000
     64 H          -1.3649   -4.5172    2.4353 H       1  UNL1        0.0000
     65 H          -2.9456   -4.3741    3.2885 H       1  UNL1        0.0000
     66 H           4.2510   -0.3770    1.5086 H       1  UNL1        0.0000
     67 H           5.5832    0.8018   -0.2413 H       1  UNL1        0.0000
     68 EU         -0.5007    0.4360   -0.8536 Eu      1  UNL1        0.0000
@<TRIPOS>BOND
     1     1     2    2
     2     2     3   am
     3     3     4    1
     4     3     5    1
     5     5     6    1
     6     6     7    1
     7     2     8    1
     8     8     9   ar
     9     9    10   ar
    10     8    11   ar
    11    11    12   ar
    12    12    13   ar
    13    10    13   ar
    14    13    14   ar
    15    14    15   ar
    16    15    16   ar
    17    16    17   ar
    18    12    17   ar
    19    17    18   ar
    20    18    19   ar
    21    19    20    1
    22    20    21   ar
    23    21    22   ar
    24    22    23    1
    25    23    24    1
    26    23    25    1
    27    23    26    1
    28    26    27    1
    29    27    28    1
    30    28    29    1
    31    28    30    1
    32    22    31   ar
    33    28    31    1
    34    31    32   ar
    35    32    33   ar
    36    20    33   ar
    37    19    34   ar
    38    34    35   ar
    39    16    35   ar
    40     4    36    1
    41     4    37    1
    42     4    38    1
    43     5    39    1
    44     5    40    1
    45     6    41    1
    46     6    42    1
    47     7    43    1
    48     7    44    1
    49     7    45    1
    50     9    46    1
    51    10    47    1
    52    14    48    1
    53    15    49    1
    54    24    50    1
    55    24    51    1
    56    24    52    1
    57    25    53    1
    58    25    54    1
    59    25    55    1
    60    26    56    1
    61    26    57    1
    62    27    58    1
    63    27    59    1
    64    29    60    1
    65    29    61    1
    66    29    62    1
    67    30    63    1
    68    30    64    1
    69    30    65    1
    70    34    66    1
    71    35    67    1
    72    68     1    1
    73    68    33    1
    74    68    18    1
    75    68    11    1
@<TRIPOS>MOLECULE
*****
 68 75 0 0 0
SMALL
GASTEIGER

@<TRIPOS>ATOM
      1 O          -2.1313    1.0373   -2.2762 O.2     1  UNL1        0.0000
      2 C          -1.8660    1.5888   -3.3528 C.2     1  UNL1        0.0000
      3 N          -2.8938    1.7382   -4.2599 N.am    1  UNL1        0.0000
      4 C          -4.2536    1.5155   -3.7745 C.3     1  UNL1        0.0000
      5 C          -2.6608    1.3473   -5.6532 C.3     1  UNL1        0.0000
      6 C          -2.5663   -0.1938   -5.7334 C.3     1  UNL1        0.0000
      7 C          -2.3299   -0.6968   -7.1499 C.3     1  UNL1        0.0000
      8 C          -0.4082    1.9257   -3.6026 C.ar    1  UNL1        0.0000
      9 C           0.1801    2.6673   -4.6611 C.ar    1  UNL1        0.0000
     10 C           1.5833    2.8662   -4.6831 C.ar    1  UNL1        0.0000
     11 N           0.4177    1.5022   -2.6324 N.ar    1  UNL1        0.0000
     12 C           1.7550    1.6708   -2.6172 C.ar    1  UNL1        0.0000
     13 C           2.3921    2.3520   -3.6500 C.ar    1  UNL1        0.0000
     14 C           3.7945    2.5034   -3.5930 C.ar    1  UNL1        0.0000
     15 C           4.5261    1.9666   -2.5039 C.ar    1  UNL1        0.0000
     16 C           3.8559    1.2841   -1.4654 C.ar    1  UNL1        0.0000
     17 C           2.4679    1.1560   -1.5458 C.ar    1  UNL1        0.0000
     18 N           1.7826    0.5205   -0.5767 N.ar    1  UNL1        0.0000
     19 C           2.3512   -0.0394    0.5088 C.ar    1  UNL1        0.0000
     20 C           1.4165   -0.7158    1.4350 C.ar    1  UNL1        0.0000
     21 N           1.8294   -1.4201    2.5164 N.ar    1  UNL1        0.0000
     22 C           0.9331   -2.1082    3.2835 C.ar    1  UNL1        0.0000
     23 C           1.4502   -3.0003    4.4045 C.3     1  UNL1        0.0000
     24 C           1.8782   -2.1093    5.5902 C.3     1  UNL1        0.0000
     25 C           2.6841   -3.7938    3.9187 C.3     1  UNL1        0.0000
     26 C           0.3711   -4.0410    4.8246 C.3     1  UNL1        0.0000
     27 C          -0.9849   -3.3808    5.0541 C.3     1  UNL1        0.0000
     28 C          -1.5383   -2.7427    3.7503 C.3     1  UNL1        0.0000
     29 C          -2.6612   -1.7607    4.1472 C.3     1  UNL1        0.0000
     30 C          -2.1356   -3.8197    2.8151 C.3     1  UNL1        0.0000
     31 C          -0.4493   -2.0139    2.9732 C.ar    1  UNL1        0.0000
     32 N          -0.8148   -1.2870    1.8879 N.ar    1  UNL1        0.0000
     33 N           0.0906   -0.6769    1.1317 N.ar    1  UNL1        0.0000
     34 C           3.7494    0.0474    0.6512 C.ar    1  UNL1        0.0000
     35 C           4.5033    0.7191   -0.3439 C.ar    1  UNL1        0.0000
     36 H          -4.4367    2.1286   -2.8649 H       1  UNL1        0.0000
     37 H          -5.0001    1.8358   -4.5325 H       1  UNL1        0.0000
     38 H          -4.4174    0.4460   -3.5249 H       1  UNL1        0.0000
     39 H          -3.4969    1.7024   -6.2943 H       1  UNL1        0.0000
     40 H          -1.7505    1.7639   -6.0842 H       1  UNL1        0.0000
     41 H          -1.7282   -0.5479   -5.0936 H       1  UNL1        0.0000
     42 H          -3.5064   -0.6510   -5.3580 H       1  UNL1        0.0000
     43 H          -3.1674   -0.3922   -7.8109 H       1  UNL1        0.0000
     44 H          -2.2724   -1.8070   -7.1349 H       1  UNL1        0.0000
     45 H          -1.3730   -0.2970   -7.5451 H       1  UNL1        0.0000
     46 H          -0.3909    3.1205   -5.4512 H       1  UNL1        0.0000
     47 H           2.0294    3.4266   -5.4958 H       1  UNL1        0.0000
     48 H           4.3196    3.0305   -4.3802 H       1  UNL1        0.0000
     49 H           5.6019    2.0874   -2.4733 H       1  UNL1        0.0000
     50 H           2.6885   -1.4134    5.2838 H       1  UNL1        0.0000
     51 H           2.2546   -2.7338    6.4290 H       1  UNL1        0.0000
     52 H           1.0380   -1.4903    5.9646 H       1  UNL1        0.0000
     53 H           2.4261   -4.4190    3.0364 H       1  UNL1        0.0000
     54 H           3.0656   -4.4592    4.7229 H       1  UNL1        0.0000
     55 H           3.5092   -3.1090    3.6243 H       1  UNL1        0.0000
     56 H           0.2456   -4.8060    4.0287 H       1  UNL1        0.0000
     57 H           0.7020   -4.5778    5.7401 H       1  UNL1        0.0000
     58 H          -0.8516   -2.6094    5.8389 H       1  UNL1        0.0000
     59 H          -1.7207   -4.1127    5.4544 H       1  UNL1        0.0000
     60 H          -3.1138   -1.2850    3.2504 H       1  UNL1        0.0000
     61 H          -2.2624   -0.9540    4.7996 H       1  UNL1        0.0000
     62 H          -3.4683   -2.2915    4.6974 H       1  UNL1        0.0000
     63 H          -2.5760   -3.3507    1.9075 H       1  UNL1        0.0000
     64 H          -1.3629   -4.5389    2.4737 H       1  UNL1        0.0000
     65 H          -2.9418   -4.3854    3.3286 H       1  UNL1        0.0000
     66 H           4.2468   -0.3917    1.5062 H       1  UNL1        0.0000
     67 H           5.5788    0.7920   -0.2399 H       1  UNL1        0.0000
     68 EU         -0.5049    0.4172   -0.8582 Eu      1  UNL1        0.0000
@<TRIPOS>BOND
     1     1     2    2
     2     2     3   am
     3     3     4    1
     4     3     5    1
     5     5     6    1
     6     6     7    1
     7     2     8    1
     8     8     9   ar
     9     9    10   ar
    10     8    11   ar
    11    11    12   ar
    12    12    13   ar
    13    10    13   ar
    14    13    14   ar
    15    14    15   ar
    16    15    16   ar
    17    16    17   ar
    18    12    17   ar
    19    17    18   ar
    20    18    19   ar
    21    19    20    1
    22    20    21   ar
    23    21    22   ar
    24    22    23    1
    25    23    24    1
    26    23    25    1
    27    23    26    1
    28    26    27    1
    29    27    28    1
    30    28    29    1
    31    28    30    1
    32    22    31   ar
    33    28    31    1
    34    31    32   ar
    35    32    33   ar
    36    20    33   ar
    37    19    34   ar
    38    34    35   ar
    39    16    35   ar
    40     4    36    1
    41     4    37    1
    42     4    38    1
    43     5    39    1
    44     5    40    1
    45     6    41    1
    46     6    42    1
    47     7    43    1
    48     7    44    1
    49     7    45    1
    50     9    46    1
    51    10    47    1
    52    14    48    1
    53    15    49    1
    54    24    50    1
    55    24    51    1
    56    24    52    1
    57    25    53    1
    58    25    54    1
    59    25    55    1
    60    26    56    1
    61    26    57    1
    62    27    58    1
    63    27    59    1
    64    29    60    1
    65    29    61    1
    66    29    62    1
    67    30    63    1
    68    30    64    1
    69    30    65    1
    70    34    66    1
    71    35    67    1
    72    68     1    1
    73    68    33    1
    74    68    18    1
    75    68    11    1
@<TRIPOS>MOLECULE
*****
 68 75 0 0 0
SMALL
GASTEIGER

@<TRIPOS>ATOM
      1 O          -2.1333    1.0217   -2.2818 O.2     1  UNL1        0.0000
      2 C          -1.8691    1.5760   -3.3576 C.2     1  UNL1        0.0000
      3 N          -2.8982    1.7280   -4.2629 N.am    1  UNL1        0.0000
      4 C          -4.2565    1.4942   -3.7795 C.3     1  UNL1        0.0000
      5 C          -2.6665    1.3614   -5.6634 C.3     1  UNL1        0.0000
      6 C          -2.5631   -0.1766   -5.7691 C.3     1  UNL1        0.0000
      7 C          -2.3278   -0.6543   -7.1947 C.3     1  UNL1        0.0000
      8 C          -0.4097    1.9164   -3.6048 C.ar    1  UNL1        0.0000
      9 C           0.1787    2.6637   -4.6602 C.ar    1  UNL1        0.0000
     10 C           1.5822    2.8639   -4.6798 C.ar    1  UNL1        0.0000
     11 N           0.4152    1.4919   -2.6358 N.ar    1  UNL1        0.0000
     12 C           1.7526    1.6621   -2.6183 C.ar    1  UNL1        0.0000
     13 C           2.3899    2.3474   -3.6491 C.ar    1  UNL1        0.0000
     14 C           3.7924    2.5000   -3.5901 C.ar    1  UNL1        0.0000
     15 C           4.5236    1.9614   -2.5021 C.ar    1  UNL1        0.0000
     16 C           3.8542    1.2750   -1.4656 C.ar    1  UNL1        0.0000
     17 C           2.4662    1.1448   -1.5479 C.ar    1  UNL1        0.0000
     18 N           1.7801    0.5065   -0.5811 N.ar    1  UNL1        0.0000
     19 C           2.3483   -0.0534    0.5039 C.ar    1  UNL1        0.0000
     20 C           1.4136   -0.7302    1.4302 C.ar    1  UNL1        0.0000
     21 N           1.8282   -1.4312    2.5138 N.ar    1  UNL1        0.0000
     22 C           0.9337   -2.1151    3.2864 C.ar    1  UNL1        0.0000
     23 C           1.4544   -2.9991    4.4124 C.3     1  UNL1        0.0000
     24 C           1.8914   -2.0983    5.5865 C.3     1  UNL1        0.0000
     25 C           2.6827   -3.8015    3.9270 C.3     1  UNL1        0.0000
     26 C           0.3746   -4.0327    4.8487 C.3     1  UNL1        0.0000
     27 C          -0.9796   -3.3673    5.0737 C.3     1  UNL1        0.0000
     28 C          -1.5358   -2.7457    3.7632 C.3     1  UNL1        0.0000
     29 C          -2.6589   -1.7603    4.1507 C.3     1  UNL1        0.0000
     30 C          -2.1335   -3.8339    2.8416 C.3     1  UNL1        0.0000
     31 C          -0.4492   -2.0234    2.9775 C.ar    1  UNL1        0.0000
     32 N          -0.8162   -1.3020    1.8873 N.ar    1  UNL1        0.0000
     33 N           0.0864   -0.6933    1.1281 N.ar    1  UNL1        0.0000
     34 C           3.7464    0.0344    0.6484 C.ar    1  UNL1        0.0000
     35 C           4.5002    0.7092   -0.3448 C.ar    1  UNL1        0.0000
     36 H          -4.4428    2.0987   -2.8648 H       1  UNL1        0.0000
     37 H          -5.0055    1.8166   -4.5344 H       1  UNL1        0.0000
     38 H          -4.4137    0.4213   -3.5395 H       1  UNL1        0.0000
     39 H          -3.5068    1.7217   -6.2964 H       1  UNL1        0.0000
     40 H          -1.7617    1.7913   -6.0913 H       1  UNL1        0.0000
     41 H          -1.7210   -0.5363   -5.1373 H       1  UNL1        0.0000
     42 H          -3.4996   -0.6453   -5.3983 H       1  UNL1        0.0000
     43 H          -3.1686   -0.3429   -7.8483 H       1  UNL1        0.0000
     44 H          -2.2641   -1.7643   -7.1992 H       1  UNL1        0.0000
     45 H          -1.3742   -0.2424   -7.5855 H       1  UNL1        0.0000
     46 H          -0.3889    3.1212   -5.4489 H       1  UNL1        0.0000
     47 H           2.0281    3.4282   -5.4901 H       1  UNL1        0.0000
     48 H           4.3172    3.0301   -4.3753 H       1  UNL1        0.0000
     49 H           5.5993    2.0837   -2.4698 H       1  UNL1        0.0000
     50 H           2.7019   -1.4077    5.2687 H       1  UNL1        0.0000
     51 H           2.2710   -2.7157    6.4291 H       1  UNL1        0.0000
     52 H           1.0548   -1.4737    5.9595 H       1  UNL1        0.0000
     53 H           2.4177   -4.4353    3.0528 H       1  UNL1        0.0000
     54 H           3.0667   -4.4601    4.7358 H       1  UNL1        0.0000
     55 H           3.5083   -3.1227    3.6209 H       1  UNL1        0.0000
     56 H           0.2450   -4.8080    4.0635 H       1  UNL1        0.0000
     57 H           0.7075   -4.5586    5.7699 H       1  UNL1        0.0000
     58 H          -0.8423   -2.5857    5.8476 H       1  UNL1        0.0000
     59 H          -1.7151   -4.0930    5.4857 H       1  UNL1        0.0000
     60 H          -3.1140   -1.2958    3.2492 H       1  UNL1        0.0000
     61 H          -2.2598   -0.9455    4.7927 H       1  UNL1        0.0000
     62 H          -3.4644   -2.2855    4.7087 H       1  UNL1        0.0000
     63 H          -2.5761   -3.3760    1.9294 H       1  UNL1        0.0000
     64 H          -1.3612   -4.5565    2.5071 H       1  UNL1        0.0000
     65 H          -2.9381   -4.3946    3.3633 H       1  UNL1        0.0000
     66 H           4.2433   -0.4039    1.5037 H       1  UNL1        0.0000
     67 H           5.5756    0.7841   -0.2392 H       1  UNL1        0.0000
     68 EU         -0.5072    0.4013   -0.8633 Eu      1  UNL1        0.0000
@<TRIPOS>BOND
     1     1     2    2
     2     2     3   am
     3     3     4    1
     4     3     5    1
     5     5     6    1
     6     6     7    1
     7     2     8    1
     8     8     9   ar
     9     9    10   ar
    10     8    11   ar
    11    11    12   ar
    12    12    13   ar
    13    10    13   ar
    14    13    14   ar
    15    14    15   ar
    16    15    16   ar
    17    16    17   ar
    18    12    17   ar
    19    17    18   ar
    20    18    19   ar
    21    19    20    1
    22    20    21   ar
    23    21    22   ar
    24    22    23    1
    25    23    24    1
    26    23    25    1
    27    23    26    1
    28    26    27    1
    29    27    28    1
    30    28    29    1
    31    28    30    1
    32    22    31   ar
    33    28    31    1
    34    31    32   ar
    35    32    33   ar
    36    20    33   ar
    37    19    34   ar
    38    34    35   ar
    39    16    35   ar
    40     4    36    1
    41     4    37    1
    42     4    38    1
    43     5    39    1
    44     5    40    1
    45     6    41    1
    46     6    42    1
    47     7    43    1
    48     7    44    1
    49     7    45    1
    50     9    46    1
    51    10    47    1
    52    14    48    1
    53    15    49    1
    54    24    50    1
    55    24    51    1
    56    24    52    1
    57    25    53    1
    58    25    54    1
    59    25    55    1
    60    26    56    1
    61    26    57    1
    62    27    58    1
    63    27    59    1
    64    29    60    1
    65    29    61    1
    66    29    62    1
    67    30    63    1
    68    30    64    1
    69    30    65    1
    70    34    66    1
    71    35    67    1
    72    68     1    1
    73    68    33    1
    74    68    18    1
    75    68    11    1
@<TRIPOS>MOLECULE
*****
 68 75 0 0 0
SMALL
GASTEIGER

@<TRIPOS>ATOM
      1 O          -2.1346    1.0064   -2.2875 O.2     1  UNL1        0.0000
      2 C          -1.8713    1.5633   -3.3623 C.2     1  UNL1        0.0000
      3 N          -2.9024    1.7167   -4.2664 N.am    1  UNL1        0.0000
      4 C          -4.2594    1.4710   -3.7839 C.3     1  UNL1        0.0000
      5 C          -2.6735    1.3753   -5.6731 C.3     1  UNL1        0.0000
      6 C          -2.5596   -0.1597   -5.8055 C.3     1  UNL1        0.0000
      7 C          -2.3264   -0.6100   -7.2404 C.3     1  UNL1        0.0000
      8 C          -0.4125    1.9069   -3.6072 C.ar    1  UNL1        0.0000
      9 C           0.1778    2.6581   -4.6585 C.ar    1  UNL1        0.0000
     10 C           1.5803    2.8605   -4.6760 C.ar    1  UNL1        0.0000
     11 N           0.4123    1.4806   -2.6370 N.ar    1  UNL1        0.0000
     12 C           1.7497    1.6530   -2.6186 C.ar    1  UNL1        0.0000
     13 C           2.3871    2.3415   -3.6452 C.ar    1  UNL1        0.0000
     14 C           3.7892    2.4962   -3.5850 C.ar    1  UNL1        0.0000
     15 C           4.5204    1.9557   -2.4979 C.ar    1  UNL1        0.0000
     16 C           3.8503    1.2662   -1.4647 C.ar    1  UNL1        0.0000
     17 C           2.4633    1.1337   -1.5478 C.ar    1  UNL1        0.0000
     18 N           1.7775    0.4926   -0.5828 N.ar    1  UNL1        0.0000
     19 C           2.3456   -0.0670    0.5016 C.ar    1  UNL1        0.0000
     20 C           1.4118   -0.7451    1.4276 C.ar    1  UNL1        0.0000
     21 N           1.8280   -1.4418    2.5130 N.ar    1  UNL1        0.0000
     22 C           0.9355   -2.1228    3.2882 C.ar    1  UNL1        0.0000
     23 C           1.4582   -2.9982    4.4207 C.3     1  UNL1        0.0000
     24 C           1.9041   -2.0876    5.5828 C.3     1  UNL1        0.0000
     25 C           2.6813   -3.8093    3.9362 C.3     1  UNL1        0.0000
     26 C           0.3775   -4.0241    4.8735 C.3     1  UNL1        0.0000
     27 C          -0.9742   -3.3538    5.0931 C.3     1  UNL1        0.0000
     28 C          -1.5333   -2.7483    3.7759 C.3     1  UNL1        0.0000
     29 C          -2.6565   -1.7597    4.1541 C.3     1  UNL1        0.0000
     30 C          -2.1314   -3.8476    2.8678 C.3     1  UNL1        0.0000
     31 C          -0.4484   -2.0336    2.9812 C.ar    1  UNL1        0.0000
     32 N          -0.8171   -1.3180    1.8874 N.ar    1  UNL1        0.0000
     33 N           0.0846   -0.7103    1.1261 N.ar    1  UNL1        0.0000
     34 C           3.7433    0.0224    0.6473 C.ar    1  UNL1        0.0000
     35 C           4.4970    0.6992   -0.3440 C.ar    1  UNL1        0.0000
     36 H          -4.4491    2.0675   -2.8647 H       1  UNL1        0.0000
     37 H          -5.0111    1.7945   -4.5355 H       1  UNL1        0.0000
     38 H          -4.4096    0.3954   -3.5528 H       1  UNL1        0.0000
     39 H          -3.5189    1.7394   -6.2969 H       1  UNL1        0.0000
     40 H          -1.7756    1.8198   -6.0983 H       1  UNL1        0.0000
     41 H          -1.7127   -0.5241   -5.1831 H       1  UNL1        0.0000
     42 H          -3.4917   -0.6407   -5.4392 H       1  UNL1        0.0000
     43 H          -3.1714   -0.2921   -7.8857 H       1  UNL1        0.0000
     44 H          -2.2555   -1.7192   -7.2656 H       1  UNL1        0.0000
     45 H          -1.3770   -0.1846   -7.6271 H       1  UNL1        0.0000
     46 H          -0.3871    3.1194   -5.4470 H       1  UNL1        0.0000
     47 H           2.0272    3.4284   -5.4832 H       1  UNL1        0.0000
     48 H           4.3142    3.0300   -4.3677 H       1  UNL1        0.0000
     49 H           5.5956    2.0803   -2.4641 H       1  UNL1        0.0000
     50 H           2.7153   -1.4024    5.2542 H       1  UNL1        0.0000
     51 H           2.2875   -2.6977    6.4295 H       1  UNL1        0.0000
     52 H           1.0717   -1.4573    5.9550 H       1  UNL1        0.0000
     53 H           2.4097   -4.4511    3.0698 H       1  UNL1        0.0000
     54 H           3.0681   -4.4610    4.7493 H       1  UNL1        0.0000
     55 H           3.5073   -3.1364    3.6184 H       1  UNL1        0.0000
     56 H           0.2445   -4.8093    4.0983 H       1  UNL1        0.0000
     57 H           0.7131   -4.5391    5.7996 H       1  UNL1        0.0000
     58 H          -0.8333   -2.5619    5.8559 H       1  UNL1        0.0000
     59 H          -1.7096   -4.0728    5.5165 H       1  UNL1        0.0000
     60 H          -3.1139   -1.3063    3.2482 H       1  UNL1        0.0000
     61 H          -2.2570   -0.9369    4.7858 H       1  UNL1        0.0000
     62 H          -3.4603   -2.2792    4.7198 H       1  UNL1        0.0000
     63 H          -2.5758   -3.4004    1.9512 H       1  UNL1        0.0000
     64 H          -1.3591   -4.5734    2.5403 H       1  UNL1        0.0000
     65 H          -2.9344   -4.4028    3.3976 H       1  UNL1        0.0000
     66 H           4.2403   -0.4162    1.5026 H       1  UNL1        0.0000
     67 H           5.5722    0.7758   -0.2375 H       1  UNL1        0.0000
     68 EU         -0.5102    0.3856   -0.8667 Eu      1  UNL1        0.0000
@<TRIPOS>BOND
     1     1     2    2
     2     2     3   am
     3     3     4    1
     4     3     5    1
     5     5     6    1
     6     6     7    1
     7     2     8    1
     8     8     9   ar
     9     9    10   ar
    10     8    11   ar
    11    11    12   ar
    12    12    13   ar
    13    10    13   ar
    14    13    14   ar
    15    14    15   ar
    16    15    16   ar
    17    16    17   ar
    18    12    17   ar
    19    17    18   ar
    20    18    19   ar
    21    19    20    1
    22    20    21   ar
    23    21    22   ar
    24    22    23    1
    25    23    24    1
    26    23    25    1
    27    23    26    1
    28    26    27    1
    29    27    28    1
    30    28    29    1
    31    28    30    1
    32    22    31   ar
    33    28    31    1
    34    31    32   ar
    35    32    33   ar
    36    20    33   ar
    37    19    34   ar
    38    34    35   ar
    39    16    35   ar
    40     4    36    1
    41     4    37    1
    42     4    38    1
    43     5    39    1
    44     5    40    1
    45     6    41    1
    46     6    42    1
    47     7    43    1
    48     7    44    1
    49     7    45    1
    50     9    46    1
    51    10    47    1
    52    14    48    1
    53    15    49    1
    54    24    50    1
    55    24    51    1
    56    24    52    1
    57    25    53    1
    58    25    54    1
    59    25    55    1
    60    26    56    1
    61    26    57    1
    62    27    58    1
    63    27    59    1
    64    29    60    1
    65    29    61    1
    66    29    62    1
    67    30    63    1
    68    30    64    1
    69    30    65    1
    70    34    66    1
    71    35    67    1
    72    68     1    1
    73    68    33    1
    74    68    18    1
    75    68    11    1
@<TRIPOS>MOLECULE
*****
 68 75 0 0 0
SMALL
GASTEIGER

@<TRIPOS>ATOM
      1 O          -2.1362    0.9921   -2.2922 O.2     1  UNL1        0.0000
      2 C          -1.8736    1.5510   -3.3662 C.2     1  UNL1        0.0000
      3 N          -2.9066    1.7057   -4.2689 N.am    1  UNL1        0.0000
      4 C          -4.2621    1.4494   -3.7877 C.3     1  UNL1        0.0000
      5 C          -2.6801    1.3885   -5.6815 C.3     1  UNL1        0.0000
      6 C          -2.5550   -0.1429   -5.8384 C.3     1  UNL1        0.0000
      7 C          -2.3249   -0.5679   -7.2817 C.3     1  UNL1        0.0000
      8 C          -0.4143    1.8963   -3.6097 C.ar    1  UNL1        0.0000
      9 C           0.1776    2.6514   -4.6575 C.ar    1  UNL1        0.0000
     10 C           1.5796    2.8544   -4.6728 C.ar    1  UNL1        0.0000
     11 N           0.4103    1.4679   -2.6394 N.ar    1  UNL1        0.0000
     12 C           1.7476    1.6412   -2.6188 C.ar    1  UNL1        0.0000
     13 C           2.3858    2.3333   -3.6437 C.ar    1  UNL1        0.0000
     14 C           3.7875    2.4901   -3.5816 C.ar    1  UNL1        0.0000
     15 C           4.5181    1.9482   -2.4950 C.ar    1  UNL1        0.0000
     16 C           3.8479    1.2558   -1.4634 C.ar    1  UNL1        0.0000
     17 C           2.4604    1.1216   -1.5486 C.ar    1  UNL1        0.0000
     18 N           1.7745    0.4793   -0.5847 N.ar    1  UNL1        0.0000
     19 C           2.3433   -0.0805    0.5004 C.ar    1  UNL1        0.0000
     20 C           1.4100   -0.7569    1.4249 C.ar    1  UNL1        0.0000
     21 N           1.8270   -1.4491    2.5127 N.ar    1  UNL1        0.0000
     22 C           0.9360   -2.1303    3.2926 C.ar    1  UNL1        0.0000
     23 C           1.4619   -2.9976    4.4286 C.3     1  UNL1        0.0000
     24 C           1.9160   -2.0781    5.5816 C.3     1  UNL1        0.0000
     25 C           2.6804   -3.8160    3.9451 C.3     1  UNL1        0.0000
     26 C           0.3812   -4.0165    4.8954 C.3     1  UNL1        0.0000
     27 C          -0.9695   -3.3418    5.1110 C.3     1  UNL1        0.0000
     28 C          -1.5308   -2.7508    3.7880 C.3     1  UNL1        0.0000
     29 C          -2.6547   -1.7596    4.1581 C.3     1  UNL1        0.0000
     30 C          -2.1293   -3.8596    2.8920 C.3     1  UNL1        0.0000
     31 C          -0.4471   -2.0420    2.9858 C.ar    1  UNL1        0.0000
     32 N          -0.8171   -1.3316    1.8884 N.ar    1  UNL1        0.0000
     33 N           0.0833   -0.7254    1.1241 N.ar    1  UNL1        0.0000
     34 C           3.7402    0.0100    0.6468 C.ar    1  UNL1        0.0000
     35 C           4.4942    0.6884   -0.3430 C.ar    1  UNL1        0.0000
     36 H          -4.4555    2.0393   -2.8651 H       1  UNL1        0.0000
     37 H          -5.0165    1.7723   -4.5369 H       1  UNL1        0.0000
     38 H          -4.4053    0.3712   -3.5637 H       1  UNL1        0.0000
     39 H          -3.5308    1.7552   -6.2965 H       1  UNL1        0.0000
     40 H          -1.7897    1.8479   -6.1042 H       1  UNL1        0.0000
     41 H          -1.7028   -0.5105   -5.2254 H       1  UNL1        0.0000
     42 H          -3.4823   -0.6360   -5.4757 H       1  UNL1        0.0000
     43 H          -3.1747   -0.2453   -7.9182 H       1  UNL1        0.0000
     44 H          -2.2466   -1.6760   -7.3257 H       1  UNL1        0.0000
     45 H          -1.3802   -0.1296   -7.6654 H       1  UNL1        0.0000
     46 H          -0.3847    3.1164   -5.4445 H       1  UNL1        0.0000
     47 H           2.0264    3.4255   -5.4775 H       1  UNL1        0.0000
     48 H           4.3125    3.0266   -4.3625 H       1  UNL1        0.0000
     49 H           5.5932    2.0742   -2.4599 H       1  UNL1        0.0000
     50 H           2.7267   -1.3977    5.2425 H       1  UNL1        0.0000
     51 H           2.3019   -2.6819    6.4310 H       1  UNL1        0.0000
     52 H           1.0861   -1.4429    5.9517 H       1  UNL1        0.0000
     53 H           2.4024   -4.4645    3.0859 H       1  UNL1        0.0000
     54 H           3.0694   -4.4617    4.7619 H       1  UNL1        0.0000
     55 H           3.5064   -3.1481    3.6172 H       1  UNL1        0.0000
     56 H           0.2443   -4.8101    4.1301 H       1  UNL1        0.0000
     57 H           0.7180   -4.5218    5.8267 H       1  UNL1        0.0000
     58 H          -0.8256   -2.5411    5.8642 H       1  UNL1        0.0000
     59 H          -1.7046   -4.0552    5.5443 H       1  UNL1        0.0000
     60 H          -3.1142   -1.3163    3.2482 H       1  UNL1        0.0000
     61 H          -2.2549   -0.9299    4.7803 H       1  UNL1        0.0000
     62 H          -3.4569   -2.2740    4.7307 H       1  UNL1        0.0000
     63 H          -2.5754   -3.4220    1.9716 H       1  UNL1        0.0000
     64 H          -1.3571   -4.5882    2.5705 H       1  UNL1        0.0000
     65 H          -2.9311   -4.4101    3.4287 H       1  UNL1        0.0000
     66 H           4.2374   -0.4281    1.5027 H       1  UNL1        0.0000
     67 H           5.5692    0.7665   -0.2355 H       1  UNL1        0.0000
     68 EU         -0.5129    0.3703   -0.8696 Eu      1  UNL1        0.0000
@<TRIPOS>BOND
     1     1     2    2
     2     2     3   am
     3     3     4    1
     4     3     5    1
     5     5     6    1
     6     6     7    1
     7     2     8    1
     8     8     9   ar
     9     9    10   ar
    10     8    11   ar
    11    11    12   ar
    12    12    13   ar
    13    10    13   ar
    14    13    14   ar
    15    14    15   ar
    16    15    16   ar
    17    16    17   ar
    18    12    17   ar
    19    17    18   ar
    20    18    19   ar
    21    19    20    1
    22    20    21   ar
    23    21    22   ar
    24    22    23    1
    25    23    24    1
    26    23    25    1
    27    23    26    1
    28    26    27    1
    29    27    28    1
    30    28    29    1
    31    28    30    1
    32    22    31   ar
    33    28    31    1
    34    31    32   ar
    35    32    33   ar
    36    20    33   ar
    37    19    34   ar
    38    34    35   ar
    39    16    35   ar
    40     4    36    1
    41     4    37    1
    42     4    38    1
    43     5    39    1
    44     5    40    1
    45     6    41    1
    46     6    42    1
    47     7    43    1
    48     7    44    1
    49     7    45    1
    50     9    46    1
    51    10    47    1
    52    14    48    1
    53    15    49    1
    54    24    50    1
    55    24    51    1
    56    24    52    1
    57    25    53    1
    58    25    54    1
    59    25    55    1
    60    26    56    1
    61    26    57    1
    62    27    58    1
    63    27    59    1
    64    29    60    1
    65    29    61    1
    66    29    62    1
    67    30    63    1
    68    30    64    1
    69    30    65    1
    70    34    66    1
    71    35    67    1
    72    68     1    1
    73    68    33    1
    74    68    18    1
    75    68    11    1
@<TRIPOS>MOLECULE
*****
 68 75 0 0 0
SMALL
GASTEIGER

@<TRIPOS>ATOM
      1 O          -2.1381    0.9786   -2.2973 O.2     1  UNL1        0.0000
      2 C          -1.8765    1.5395   -3.3706 C.2     1  UNL1        0.0000
      3 N          -2.9112    1.6949   -4.2718 N.am    1  UNL1        0.0000
      4 C          -4.2651    1.4287   -3.7913 C.3     1  UNL1        0.0000
      5 C          -2.6874    1.4009   -5.6895 C.3     1  UNL1        0.0000
      6 C          -2.5502   -0.1265   -5.8691 C.3     1  UNL1        0.0000
      7 C          -2.3238   -0.5278   -7.3198 C.3     1  UNL1        0.0000
      8 C          -0.4168    1.8874   -3.6124 C.ar    1  UNL1        0.0000
      9 C           0.1768    2.6452   -4.6576 C.ar    1  UNL1        0.0000
     10 C           1.5782    2.8500   -4.6708 C.ar    1  UNL1        0.0000
     11 N           0.4073    1.4584   -2.6414 N.ar    1  UNL1        0.0000
     12 C           1.7443    1.6333   -2.6188 C.ar    1  UNL1        0.0000
     13 C           2.3834    2.3277   -3.6418 C.ar    1  UNL1        0.0000
     14 C           3.7847    2.4855   -3.5783 C.ar    1  UNL1        0.0000
     15 C           4.5147    1.9427   -2.4922 C.ar    1  UNL1        0.0000
     16 C           3.8440    1.2488   -1.4625 C.ar    1  UNL1        0.0000
     17 C           2.4568    1.1130   -1.5490 C.ar    1  UNL1        0.0000
     18 N           1.7708    0.4687   -0.5865 N.ar    1  UNL1        0.0000
     19 C           2.3393   -0.0911    0.4980 C.ar    1  UNL1        0.0000
     20 C           1.4072   -0.7691    1.4232 C.ar    1  UNL1        0.0000
     21 N           1.8263   -1.4584    2.5125 N.ar    1  UNL1        0.0000
     22 C           0.9369   -2.1355    3.2952 C.ar    1  UNL1        0.0000
     23 C           1.4651   -2.9965    4.4354 C.3     1  UNL1        0.0000
     24 C           1.9261   -2.0694    5.5797 C.3     1  UNL1        0.0000
     25 C           2.6797   -3.8215    3.9534 C.3     1  UNL1        0.0000
     26 C           0.3843   -4.0091    4.9150 C.3     1  UNL1        0.0000
     27 C          -0.9652   -3.3309    5.1264 C.3     1  UNL1        0.0000
     28 C          -1.5288   -2.7533    3.7986 C.3     1  UNL1        0.0000
     29 C          -2.6532   -1.7597    4.1612 C.3     1  UNL1        0.0000
     30 C          -2.1275   -3.8705    2.9134 C.3     1  UNL1        0.0000
     31 C          -0.4470   -2.0501    2.9893 C.ar    1  UNL1        0.0000
     32 N          -0.8191   -1.3448    1.8886 N.ar    1  UNL1        0.0000
     33 N           0.0798   -0.7385    1.1229 N.ar    1  UNL1        0.0000
     34 C           3.7368    0.0008    0.6457 C.ar    1  UNL1        0.0000
     35 C           4.4907    0.6811   -0.3428 C.ar    1  UNL1        0.0000
     36 H          -4.4617    2.0135   -2.8661 H       1  UNL1        0.0000
     37 H          -5.0223    1.7498   -4.5384 H       1  UNL1        0.0000
     38 H          -4.4010    0.3485   -3.5725 H       1  UNL1        0.0000
     39 H          -3.5439    1.7686   -6.2957 H       1  UNL1        0.0000
     40 H          -1.8050    1.8760   -6.1098 H       1  UNL1        0.0000
     41 H          -1.6922   -0.4960   -5.2654 H       1  UNL1        0.0000
     42 H          -3.4720   -0.6319   -5.5091 H       1  UNL1        0.0000
     43 H          -3.1789   -0.2017   -7.9475 H       1  UNL1        0.0000
     44 H          -2.2375   -1.6344   -7.3813 H       1  UNL1        0.0000
     45 H          -1.3842   -0.0764   -7.7010 H       1  UNL1        0.0000
     46 H          -0.3820    3.1127   -5.4442 H       1  UNL1        0.0000
     47 H           2.0257    3.4233   -5.4736 H       1  UNL1        0.0000
     48 H           4.3098    3.0234   -4.3581 H       1  UNL1        0.0000
     49 H           5.5896    2.0693   -2.4561 H       1  UNL1        0.0000
     50 H           2.7369   -1.3932    5.2324 H       1  UNL1        0.0000
     51 H           2.3144   -2.6675    6.4321 H       1  UNL1        0.0000
     52 H           1.0990   -1.4299    5.9488 H       1  UNL1        0.0000
     53 H           2.3964   -4.4762    3.1007 H       1  UNL1        0.0000
     54 H           3.0705   -4.4617    4.7737 H       1  UNL1        0.0000
     55 H           3.5059   -3.1582    3.6166 H       1  UNL1        0.0000
     56 H           0.2445   -4.8103    4.1583 H       1  UNL1        0.0000
     57 H           0.7227   -4.5056    5.8505 H       1  UNL1        0.0000
     58 H          -0.8187   -2.5224    5.8710 H       1  UNL1        0.0000
     59 H          -1.6999   -4.0391    5.5688 H       1  UNL1        0.0000
     60 H          -3.1143   -1.3250    3.2480 H       1  UNL1        0.0000
     61 H          -2.2532   -0.9239    4.7753 H       1  UNL1        0.0000
     62 H          -3.4540   -2.2695    4.7396 H       1  UNL1        0.0000
     63 H          -2.5750   -3.4415    1.9898 H       1  UNL1        0.0000
     64 H          -1.3551   -4.6013    2.5977 H       1  UNL1        0.0000
     65 H          -2.9279   -4.4168    3.4565 H       1  UNL1        0.0000
     66 H           4.2332   -0.4371    1.5019 H       1  UNL1        0.0000
     67 H           5.5653    0.7595   -0.2342 H       1  UNL1        0.0000
     68 EU         -0.5163    0.3575   -0.8728 Eu      1  UNL1        0.0000
@<TRIPOS>BOND
     1     1     2    2
     2     2     3   am
     3     3     4    1
     4     3     5    1
     5     5     6    1
     6     6     7    1
     7     2     8    1
     8     8     9   ar
     9     9    10   ar
    10     8    11   ar
    11    11    12   ar
    12    12    13   ar
    13    10    13   ar
    14    13    14   ar
    15    14    15   ar
    16    15    16   ar
    17    16    17   ar
    18    12    17   ar
    19    17    18   ar
    20    18    19   ar
    21    19    20    1
    22    20    21   ar
    23    21    22   ar
    24    22    23    1
    25    23    24    1
    26    23    25    1
    27    23    26    1
    28    26    27    1
    29    27    28    1
    30    28    29    1
    31    28    30    1
    32    22    31   ar
    33    28    31    1
    34    31    32   ar
    35    32    33   ar
    36    20    33   ar
    37    19    34   ar
    38    34    35   ar
    39    16    35   ar
    40     4    36    1
    41     4    37    1
    42     4    38    1
    43     5    39    1
    44     5    40    1
    45     6    41    1
    46     6    42    1
    47     7    43    1
    48     7    44    1
    49     7    45    1
    50     9    46    1
    51    10    47    1
    52    14    48    1
    53    15    49    1
    54    24    50    1
    55    24    51    1
    56    24    52    1
    57    25    53    1
    58    25    54    1
    59    25    55    1
    60    26    56    1
    61    26    57    1
    62    27    58    1
    63    27    59    1
    64    29    60    1
    65    29    61    1
    66    29    62    1
    67    30    63    1
    68    30    64    1
    69    30    65    1
    70    34    66    1
    71    35    67    1
    72    68     1    1
    73    68    33    1
    74    68    18    1
    75    68    11    1
@<TRIPOS>MOLECULE
*****
 68 75 0 0 0
SMALL
GASTEIGER

@<TRIPOS>ATOM
      1 O          -2.1381    0.9765   -2.2977 O.2     1  UNL1        0.0000
      2 C          -1.8766    1.5379   -3.3710 C.2     1  UNL1        0.0000
      3 N          -2.9115    1.6933   -4.2719 N.am    1  UNL1        0.0000
      4 C          -4.2654    1.4254   -3.7917 C.3     1  UNL1        0.0000
      5 C          -2.6885    1.4029   -5.6904 C.3     1  UNL1        0.0000
      6 C          -2.5494   -0.1240   -5.8737 C.3     1  UNL1        0.0000
      7 C          -2.3236   -0.5216   -7.3255 C.3     1  UNL1        0.0000
      8 C          -0.4167    1.8861   -3.6125 C.ar    1  UNL1        0.0000
      9 C           0.1764    2.6450   -4.6577 C.ar    1  UNL1        0.0000
     10 C           1.5781    2.8495   -4.6707 C.ar    1  UNL1        0.0000
     11 N           0.4075    1.4572   -2.6421 N.ar    1  UNL1        0.0000
     12 C           1.7443    1.6325   -2.6190 C.ar    1  UNL1        0.0000
     13 C           2.3830    2.3264   -3.6414 C.ar    1  UNL1        0.0000
     14 C           3.7845    2.4854   -3.5780 C.ar    1  UNL1        0.0000
     15 C           4.5144    1.9421   -2.4918 C.ar    1  UNL1        0.0000
     16 C           3.8437    1.2480   -1.4623 C.ar    1  UNL1        0.0000
     17 C           2.4567    1.1123   -1.5493 C.ar    1  UNL1        0.0000
     18 N           1.7707    0.4675   -0.5869 N.ar    1  UNL1        0.0000
     19 C           2.3392   -0.0913    0.4977 C.ar    1  UNL1        0.0000
     20 C           1.4072   -0.7704    1.4236 C.ar    1  UNL1        0.0000
     21 N           1.8266   -1.4591    2.5119 N.ar    1  UNL1        0.0000
     22 C           0.9374   -2.1364    3.2953 C.ar    1  UNL1        0.0000
     23 C           1.4654   -2.9964    4.4365 C.3     1  UNL1        0.0000
     24 C           1.9274   -2.0681    5.5794 C.3     1  UNL1        0.0000
     25 C           2.6798   -3.8224    3.9547 C.3     1  UNL1        0.0000
     26 C           0.3844   -4.0078    4.9179 C.3     1  UNL1        0.0000
     27 C          -0.9645   -3.3294    5.1288 C.3     1  UNL1        0.0000
     28 C          -1.5284   -2.7533    3.8001 C.3     1  UNL1        0.0000
     29 C          -2.6529   -1.7598    4.1620 C.3     1  UNL1        0.0000
     30 C          -2.1273   -3.8719    2.9164 C.3     1  UNL1        0.0000
     31 C          -0.4467   -2.0506    2.9892 C.ar    1  UNL1        0.0000
     32 N          -0.8191   -1.3462    1.8886 N.ar    1  UNL1        0.0000
     33 N           0.0805   -0.7395    1.1220 N.ar    1  UNL1        0.0000
     34 C           3.7359   -0.0007    0.6458 C.ar    1  UNL1        0.0000
     35 C           4.4903    0.6798   -0.3425 C.ar    1  UNL1        0.0000
     36 H          -4.4627    2.0098   -2.8663 H       1  UNL1        0.0000
     37 H          -5.0231    1.7463   -4.5386 H       1  UNL1        0.0000
     38 H          -4.4004    0.3451   -3.5736 H       1  UNL1        0.0000
     39 H          -3.5460    1.7705   -6.2954 H       1  UNL1        0.0000
     40 H          -1.8076    1.8803   -6.1107 H       1  UNL1        0.0000
     41 H          -1.6905   -0.4937   -5.2715 H       1  UNL1        0.0000
     42 H          -3.4703   -0.6313   -5.5141 H       1  UNL1        0.0000
     43 H          -3.1796   -0.1951   -7.9519 H       1  UNL1        0.0000
     44 H          -2.2360   -1.6280   -7.3897 H       1  UNL1        0.0000
     45 H          -1.3849   -0.0682   -7.7065 H       1  UNL1        0.0000
     46 H          -0.3817    3.1127   -5.4452 H       1  UNL1        0.0000
     47 H           2.0255    3.4228   -5.4736 H       1  UNL1        0.0000
     48 H           4.3098    3.0230   -4.3576 H       1  UNL1        0.0000
     49 H           5.5891    2.0688   -2.4555 H       1  UNL1        0.0000
     50 H           2.7383   -1.3926    5.2308 H       1  UNL1        0.0000
     51 H           2.3162   -2.6653    6.4322 H       1  UNL1        0.0000
     52 H           1.1009   -1.4279    5.9484 H       1  UNL1        0.0000
     53 H           2.3954   -4.4780    3.1031 H       1  UNL1        0.0000
     54 H           3.0708   -4.4621    4.7764 H       1  UNL1        0.0000
     55 H           3.5053   -3.1601    3.6169 H       1  UNL1        0.0000
     56 H           0.2445   -4.8103    4.1625 H       1  UNL1        0.0000
     57 H           0.7233   -4.5032    5.8539 H       1  UNL1        0.0000
     58 H          -0.8178   -2.5197    5.8720 H       1  UNL1        0.0000
     59 H          -1.6993   -4.0367    5.5723 H       1  UNL1        0.0000
     60 H          -3.1144   -1.3264    3.2484 H       1  UNL1        0.0000
     61 H          -2.2530   -0.9227    4.7748 H       1  UNL1        0.0000
     62 H          -3.4537   -2.2688    4.7411 H       1  UNL1        0.0000
     63 H          -2.5750   -3.4444    1.9926 H       1  UNL1        0.0000
     64 H          -1.3548   -4.6030    2.6018 H       1  UNL1        0.0000
     65 H          -2.9273   -4.4176    3.4607 H       1  UNL1        0.0000
     66 H           4.2329   -0.4387    1.5019 H       1  UNL1        0.0000
     67 H           5.5647    0.7585   -0.2339 H       1  UNL1        0.0000
     68 EU         -0.5164    0.3551   -0.8734 Eu      1  UNL1        0.0000
@<TRIPOS>BOND
     1     1     2    2
     2     2     3   am
     3     3     4    1
     4     3     5    1
     5     5     6    1
     6     6     7    1
     7     2     8    1
     8     8     9   ar
     9     9    10   ar
    10     8    11   ar
    11    11    12   ar
    12    12    13   ar
    13    10    13   ar
    14    13    14   ar
    15    14    15   ar
    16    15    16   ar
    17    16    17   ar
    18    12    17   ar
    19    17    18   ar
    20    18    19   ar
    21    19    20    1
    22    20    21   ar
    23    21    22   ar
    24    22    23    1
    25    23    24    1
    26    23    25    1
    27    23    26    1
    28    26    27    1
    29    27    28    1
    30    28    29    1
    31    28    30    1
    32    22    31   ar
    33    28    31    1
    34    31    32   ar
    35    32    33   ar
    36    20    33   ar
    37    19    34   ar
    38    34    35   ar
    39    16    35   ar
    40     4    36    1
    41     4    37    1
    42     4    38    1
    43     5    39    1
    44     5    40    1
    45     6    41    1
    46     6    42    1
    47     7    43    1
    48     7    44    1
    49     7    45    1
    50     9    46    1
    51    10    47    1
    52    14    48    1
    53    15    49    1
    54    24    50    1
    55    24    51    1
    56    24    52    1
    57    25    53    1
    58    25    54    1
    59    25    55    1
    60    26    56    1
    61    26    57    1
    62    27    58    1
    63    27    59    1
    64    29    60    1
    65    29    61    1
    66    29    62    1
    67    30    63    1
    68    30    64    1
    69    30    65    1
    70    34    66    1
    71    35    67    1
    72    68     1    1
    73    68    33    1
    74    68    18    1
    75    68    11    1
@<TRIPOS>MOLECULE
*****
 68 75 0 0 0
SMALL
GASTEIGER

@<TRIPOS>ATOM
      1 O          -2.1380    0.9758   -2.2983 O.2     1  UNL1        0.0000
      2 C          -1.8766    1.5370   -3.3709 C.2     1  UNL1        0.0000
      3 N          -2.9121    1.6921   -4.2721 N.am    1  UNL1        0.0000
      4 C          -4.2657    1.4243   -3.7918 C.3     1  UNL1        0.0000
      5 C          -2.6890    1.4035   -5.6909 C.3     1  UNL1        0.0000
      6 C          -2.5490   -0.1229   -5.8758 C.3     1  UNL1        0.0000
      7 C          -2.3235   -0.5189   -7.3280 C.3     1  UNL1        0.0000
      8 C          -0.4173    1.8859   -3.6128 C.ar    1  UNL1        0.0000
      9 C           0.1766    2.6445   -4.6577 C.ar    1  UNL1        0.0000
     10 C           1.5780    2.8490   -4.6707 C.ar    1  UNL1        0.0000
     11 N           0.4071    1.4562   -2.6416 N.ar    1  UNL1        0.0000
     12 C           1.7440    1.6319   -2.6193 C.ar    1  UNL1        0.0000
     13 C           2.3831    2.3268   -3.6417 C.ar    1  UNL1        0.0000
     14 C           3.7844    2.4849   -3.5779 C.ar    1  UNL1        0.0000
     15 C           4.5142    1.9419   -2.4916 C.ar    1  UNL1        0.0000
     16 C           3.8436    1.2478   -1.4625 C.ar    1  UNL1        0.0000
     17 C           2.4570    1.1114   -1.5495 C.ar    1  UNL1        0.0000
     18 N           1.7707    0.4678   -0.5872 N.ar    1  UNL1        0.0000
     19 C           2.3392   -0.0928    0.4979 C.ar    1  UNL1        0.0000
     20 C           1.4082   -0.7700    1.4227 C.ar    1  UNL1        0.0000
     21 N           1.8266   -1.4600    2.5120 N.ar    1  UNL1        0.0000
     22 C           0.9374   -2.1360    3.2949 C.ar    1  UNL1        0.0000
     23 C           1.4659   -2.9959    4.4371 C.3     1  UNL1        0.0000
     24 C           1.9281   -2.0675    5.5793 C.3     1  UNL1        0.0000
     25 C           2.6794   -3.8228    3.9555 C.3     1  UNL1        0.0000
     26 C           0.3850   -4.0076    4.9190 C.3     1  UNL1        0.0000
     27 C          -0.9643   -3.3284    5.1295 C.3     1  UNL1        0.0000
     28 C          -1.5282   -2.7533    3.8004 C.3     1  UNL1        0.0000
     29 C          -2.6529   -1.7596    4.1620 C.3     1  UNL1        0.0000
     30 C          -2.1271   -3.8725    2.9181 C.3     1  UNL1        0.0000
     31 C          -0.4462   -2.0512    2.9883 C.ar    1  UNL1        0.0000
     32 N          -0.8179   -1.3457    1.8878 N.ar    1  UNL1        0.0000
     33 N           0.0799   -0.7416    1.1219 N.ar    1  UNL1        0.0000
     34 C           3.7366   -0.0002    0.6457 C.ar    1  UNL1        0.0000
     35 C           4.4901    0.6793   -0.3424 C.ar    1  UNL1        0.0000
     36 H          -4.4630    2.0081   -2.8664 H       1  UNL1        0.0000
     37 H          -5.0234    1.7447   -4.5386 H       1  UNL1        0.0000
     38 H          -4.4001    0.3435   -3.5740 H       1  UNL1        0.0000
     39 H          -3.5469    1.7714   -6.2952 H       1  UNL1        0.0000
     40 H          -1.8086    1.8823   -6.1110 H       1  UNL1        0.0000
     41 H          -1.6897   -0.4926   -5.2742 H       1  UNL1        0.0000
     42 H          -3.4695   -0.6310   -5.5162 H       1  UNL1        0.0000
     43 H          -3.1799   -0.1923   -7.9537 H       1  UNL1        0.0000
     44 H          -2.2353   -1.6251   -7.3934 H       1  UNL1        0.0000
     45 H          -1.3852   -0.0646   -7.7088 H       1  UNL1        0.0000
     46 H          -0.3815    3.1127   -5.4452 H       1  UNL1        0.0000
     47 H           2.0255    3.4225   -5.4731 H       1  UNL1        0.0000
     48 H           4.3095    3.0229   -4.3573 H       1  UNL1        0.0000
     49 H           5.5893    2.0687   -2.4553 H       1  UNL1        0.0000
     50 H           2.7388   -1.3923    5.2301 H       1  UNL1        0.0000
     51 H           2.3170   -2.6644    6.4322 H       1  UNL1        0.0000
     52 H           1.1016   -1.4270    5.9481 H       1  UNL1        0.0000
     53 H           2.3951   -4.4789    3.1041 H       1  UNL1        0.0000
     54 H           3.0706   -4.4617    4.7765 H       1  UNL1        0.0000
     55 H           3.5057   -3.1604    3.6167 H       1  UNL1        0.0000
     56 H           0.2444   -4.8103    4.1642 H       1  UNL1        0.0000
     57 H           0.7235   -4.5021    5.8555 H       1  UNL1        0.0000
     58 H          -0.8173   -2.5185    5.8724 H       1  UNL1        0.0000
     59 H          -1.6991   -4.0357    5.5739 H       1  UNL1        0.0000
     60 H          -3.1145   -1.3268    3.2483 H       1  UNL1        0.0000
     61 H          -2.2530   -0.9226    4.7744 H       1  UNL1        0.0000
     62 H          -3.4534   -2.2685    4.7418 H       1  UNL1        0.0000
     63 H          -2.5751   -3.4456    1.9936 H       1  UNL1        0.0000
     64 H          -1.3546   -4.6039    2.6034 H       1  UNL1        0.0000
     65 H          -2.9271   -4.4180    3.4625 H       1  UNL1        0.0000
     66 H           4.2326   -0.4394    1.5018 H       1  UNL1        0.0000
     67 H           5.5645    0.7581   -0.2338 H       1  UNL1        0.0000
     68 EU         -0.5177    0.3556   -0.8733 Eu      1  UNL1        0.0000
@<TRIPOS>BOND
     1     1     2    2
     2     2     3   am
     3     3     4    1
     4     3     5    1
     5     5     6    1
     6     6     7    1
     7     2     8    1
     8     8     9   ar
     9     9    10   ar
    10     8    11   ar
    11    11    12   ar
    12    12    13   ar
    13    10    13   ar
    14    13    14   ar
    15    14    15   ar
    16    15    16   ar
    17    16    17   ar
    18    12    17   ar
    19    17    18   ar
    20    18    19   ar
    21    19    20    1
    22    20    21   ar
    23    21    22   ar
    24    22    23    1
    25    23    24    1
    26    23    25    1
    27    23    26    1
    28    26    27    1
    29    27    28    1
    30    28    29    1
    31    28    30    1
    32    22    31   ar
    33    28    31    1
    34    31    32   ar
    35    32    33   ar
    36    20    33   ar
    37    19    34   ar
    38    34    35   ar
    39    16    35   ar
    40     4    36    1
    41     4    37    1
    42     4    38    1
    43     5    39    1
    44     5    40    1
    45     6    41    1
    46     6    42    1
    47     7    43    1
    48     7    44    1
    49     7    45    1
    50     9    46    1
    51    10    47    1
    52    14    48    1
    53    15    49    1
    54    24    50    1
    55    24    51    1
    56    24    52    1
    57    25    53    1
    58    25    54    1
    59    25    55    1
    60    26    56    1
    61    26    57    1
    62    27    58    1
    63    27    59    1
    64    29    60    1
    65    29    61    1
    66    29    62    1
    67    30    63    1
    68    30    64    1
    69    30    65    1
    70    34    66    1
    71    35    67    1
    72    68     1    1
    73    68    33    1
    74    68    18    1
    75    68    11    1
@<TRIPOS>MOLECULE
*****
 68 75 0 0 0
SMALL
GASTEIGER

@<TRIPOS>ATOM
      1 O          -2.1389    0.9603   -2.3024 O.2     1  UNL1        0.0000
      2 C          -1.8786    1.5236   -3.3750 C.2     1  UNL1        0.0000
      3 N          -2.9157    1.6804   -4.2742 N.am    1  UNL1        0.0000
      4 C          -4.2679    1.4039   -3.7945 C.3     1  UNL1        0.0000
      5 C          -2.6963    1.4137   -5.6977 C.3     1  UNL1        0.0000
      6 C          -2.5437   -0.1084   -5.9035 C.3     1  UNL1        0.0000
      7 C          -2.3226   -0.4827   -7.3621 C.3     1  UNL1        0.0000
      8 C          -0.4187    1.8744   -3.6150 C.ar    1  UNL1        0.0000
      9 C           0.1757    2.6361   -4.6579 C.ar    1  UNL1        0.0000
     10 C           1.5766    2.8420   -4.6686 C.ar    1  UNL1        0.0000
     11 N           0.4052    1.4442   -2.6438 N.ar    1  UNL1        0.0000
     12 C           1.7420    1.6216   -2.6193 C.ar    1  UNL1        0.0000
     13 C           2.3810    2.3189   -3.6401 C.ar    1  UNL1        0.0000
     14 C           3.7819    2.4794   -3.5751 C.ar    1  UNL1        0.0000
     15 C           4.5119    1.9364   -2.4893 C.ar    1  UNL1        0.0000
     16 C           3.8413    1.2396   -1.4614 C.ar    1  UNL1        0.0000
     17 C           2.4542    1.1006   -1.5500 C.ar    1  UNL1        0.0000
     18 N           1.7694    0.4547   -0.5880 N.ar    1  UNL1        0.0000
     19 C           2.3380   -0.1046    0.4967 C.ar    1  UNL1        0.0000
     20 C           1.4067   -0.7831    1.4222 C.ar    1  UNL1        0.0000
     21 N           1.8268   -1.4683    2.5128 N.ar    1  UNL1        0.0000
     22 C           0.9387   -2.1426    3.2992 C.ar    1  UNL1        0.0000
     23 C           1.4689   -2.9955    4.4445 C.3     1  UNL1        0.0000
     24 C           1.9364   -2.0600    5.5785 C.3     1  UNL1        0.0000
     25 C           2.6791   -3.8275    3.9636 C.3     1  UNL1        0.0000
     26 C           0.3874   -4.0015    4.9367 C.3     1  UNL1        0.0000
     27 C          -0.9606   -3.3192    5.1437 C.3     1  UNL1        0.0000
     28 C          -1.5262   -2.7559    3.8104 C.3     1  UNL1        0.0000
     29 C          -2.6509   -1.7592    4.1649 C.3     1  UNL1        0.0000
     30 C          -2.1253   -3.8820    2.9369 C.3     1  UNL1        0.0000
     31 C          -0.4457   -2.0590    2.9931 C.ar    1  UNL1        0.0000
     32 N          -0.8190   -1.3602    1.8899 N.ar    1  UNL1        0.0000
     33 N           0.0791   -0.7556    1.1208 N.ar    1  UNL1        0.0000
     34 C           3.7355   -0.0105    0.6461 C.ar    1  UNL1        0.0000
     35 C           4.4876    0.6707   -0.3413 C.ar    1  UNL1        0.0000
     36 H          -4.4681    1.9851   -2.8678 H       1  UNL1        0.0000
     37 H          -5.0283    1.7216   -4.5399 H       1  UNL1        0.0000
     38 H          -4.3959    0.3219   -3.5794 H       1  UNL1        0.0000
     39 H          -3.5606    1.7811   -6.2932 H       1  UNL1        0.0000
     40 H          -1.8250    1.9085   -6.1161 H       1  UNL1        0.0000
     41 H          -1.6783   -0.4786   -5.3111 H       1  UNL1        0.0000
     42 H          -3.4583   -0.6286   -5.5457 H       1  UNL1        0.0000
     43 H          -3.1846   -0.1542   -7.9790 H       1  UNL1        0.0000
     44 H          -2.2260   -1.5871   -7.4431 H       1  UNL1        0.0000
     45 H          -1.3898   -0.0156   -7.7411 H       1  UNL1        0.0000
     46 H          -0.3791    3.1065   -5.4454 H       1  UNL1        0.0000
     47 H           2.0243    3.4181   -5.4693 H       1  UNL1        0.0000
     48 H           4.3065    3.0197   -4.3533 H       1  UNL1        0.0000
     49 H           5.5865    2.0651   -2.4519 H       1  UNL1        0.0000
     50 H           2.7471   -1.3884    5.2220 H       1  UNL1        0.0000
     51 H           2.3275   -2.6516    6.4341 H       1  UNL1        0.0000
     52 H           1.1121   -1.4158    5.9458 H       1  UNL1        0.0000
     53 H           2.3904   -4.4885    3.1175 H       1  UNL1        0.0000
     54 H           3.0721   -4.4618    4.7874 H       1  UNL1        0.0000
     55 H           3.5052   -3.1690    3.6174 H       1  UNL1        0.0000
     56 H           0.2447   -4.8106    4.1891 H       1  UNL1        0.0000
     57 H           0.7272   -4.4886    5.8766 H       1  UNL1        0.0000
     58 H          -0.8117   -2.5026    5.8784 H       1  UNL1        0.0000
     59 H          -1.6954   -4.0218    5.5949 H       1  UNL1        0.0000
     60 H          -3.1142   -1.3346    3.2481 H       1  UNL1        0.0000
     61 H          -2.2513   -0.9174    4.7700 H       1  UNL1        0.0000
     62 H          -3.4508   -2.2645    4.7493 H       1  UNL1        0.0000
     63 H          -2.5745   -3.4621    2.0096 H       1  UNL1        0.0000
     64 H          -1.3529   -4.6151    2.6268 H       1  UNL1        0.0000
     65 H          -2.9245   -4.4235    3.4863 H       1  UNL1        0.0000
     66 H           4.2311   -0.4497    1.5018 H       1  UNL1        0.0000
     67 H           5.5628    0.7525   -0.2322 H       1  UNL1        0.0000
     68 EU         -0.5179    0.3396   -0.8761 Eu      1  UNL1        0.0000
@<TRIPOS>BOND
     1     1     2    2
     2     2     3   am
     3     3     4    1
     4     3     5    1
     5     5     6    1
     6     6     7    1
     7     2     8    1
     8     8     9   ar
     9     9    10   ar
    10     8    11   ar
    11    11    12   ar
    12    12    13   ar
    13    10    13   ar
    14    13    14   ar
    15    14    15   ar
    16    15    16   ar
    17    16    17   ar
    18    12    17   ar
    19    17    18   ar
    20    18    19   ar
    21    19    20    1
    22    20    21   ar
    23    21    22   ar
    24    22    23    1
    25    23    24    1
    26    23    25    1
    27    23    26    1
    28    26    27    1
    29    27    28    1
    30    28    29    1
    31    28    30    1
    32    22    31   ar
    33    28    31    1
    34    31    32   ar
    35    32    33   ar
    36    20    33   ar
    37    19    34   ar
    38    34    35   ar
    39    16    35   ar
    40     4    36    1
    41     4    37    1
    42     4    38    1
    43     5    39    1
    44     5    40    1
    45     6    41    1
    46     6    42    1
    47     7    43    1
    48     7    44    1
    49     7    45    1
    50     9    46    1
    51    10    47    1
    52    14    48    1
    53    15    49    1
    54    24    50    1
    55    24    51    1
    56    24    52    1
    57    25    53    1
    58    25    54    1
    59    25    55    1
    60    26    56    1
    61    26    57    1
    62    27    58    1
    63    27    59    1
    64    29    60    1
    65    29    61    1
    66    29    62    1
    67    30    63    1
    68    30    64    1
    69    30    65    1
    70    34    66    1
    71    35    67    1
    72    68     1    1
    73    68    33    1
    74    68    18    1
    75    68    11    1
@<TRIPOS>MOLECULE
*****
 68 75 0 0 0
SMALL
GASTEIGER

@<TRIPOS>ATOM
      1 O          -2.1396    0.9468   -2.3059 O.2     1  UNL1        0.0000
      2 C          -1.8806    1.5106   -3.3779 C.2     1  UNL1        0.0000
      3 N          -2.9199    1.6673   -4.2757 N.am    1  UNL1        0.0000
      4 C          -4.2705    1.3825   -3.7961 C.3     1  UNL1        0.0000
      5 C          -2.7047    1.4250   -5.7039 C.3     1  UNL1        0.0000
      6 C          -2.5364   -0.0918   -5.9328 C.3     1  UNL1        0.0000
      7 C          -2.3213   -0.4422   -7.3984 C.3     1  UNL1        0.0000
      8 C          -0.4200    1.8647   -3.6184 C.ar    1  UNL1        0.0000
      9 C           0.1747    2.6268   -4.6591 C.ar    1  UNL1        0.0000
     10 C           1.5763    2.8347   -4.6681 C.ar    1  UNL1        0.0000
     11 N           0.4037    1.4345   -2.6466 N.ar    1  UNL1        0.0000
     12 C           1.7406    1.6129   -2.6205 C.ar    1  UNL1        0.0000
     13 C           2.3800    2.3116   -3.6394 C.ar    1  UNL1        0.0000
     14 C           3.7806    2.4730   -3.5731 C.ar    1  UNL1        0.0000
     15 C           4.5100    1.9293   -2.4873 C.ar    1  UNL1        0.0000
     16 C           3.8391    1.2312   -1.4606 C.ar    1  UNL1        0.0000
     17 C           2.4527    1.0919   -1.5499 C.ar    1  UNL1        0.0000
     18 N           1.7663    0.4447   -0.5895 N.ar    1  UNL1        0.0000
     19 C           2.3355   -0.1142    0.4952 C.ar    1  UNL1        0.0000
     20 C           1.4047   -0.7932    1.4209 C.ar    1  UNL1        0.0000
     21 N           1.8259   -1.4760    2.5126 N.ar    1  UNL1        0.0000
     22 C           0.9388   -2.1480    3.3016 C.ar    1  UNL1        0.0000
     23 C           1.4711   -2.9949    4.4508 C.3     1  UNL1        0.0000
     24 C           1.9445   -2.0523    5.5773 C.3     1  UNL1        0.0000
     25 C           2.6786   -3.8323    3.9723 C.3     1  UNL1        0.0000
     26 C           0.3900   -3.9951    4.9545 C.3     1  UNL1        0.0000
     27 C          -0.9570   -3.3096    5.1572 C.3     1  UNL1        0.0000
     28 C          -1.5246   -2.7580    3.8198 C.3     1  UNL1        0.0000
     29 C          -2.6498   -1.7599    4.1676 C.3     1  UNL1        0.0000
     30 C          -2.1235   -3.8916    2.9562 C.3     1  UNL1        0.0000
     31 C          -0.4449   -2.0666    2.9974 C.ar    1  UNL1        0.0000
     32 N          -0.8205   -1.3716    1.8909 N.ar    1  UNL1        0.0000
     33 N           0.0767   -0.7673    1.1199 N.ar    1  UNL1        0.0000
     34 C           3.7321   -0.0191    0.6455 C.ar    1  UNL1        0.0000
     35 C           4.4855    0.6633   -0.3408 C.ar    1  UNL1        0.0000
     36 H          -4.4746    1.9631   -2.8700 H       1  UNL1        0.0000
     37 H          -5.0339    1.6937   -4.5411 H       1  UNL1        0.0000
     38 H          -4.3906    0.2995   -3.5811 H       1  UNL1        0.0000
     39 H          -3.5766    1.7900   -6.2896 H       1  UNL1        0.0000
     40 H          -1.8447    1.9392   -6.1203 H       1  UNL1        0.0000
     41 H          -1.6633   -0.4613   -5.3513 H       1  UNL1        0.0000
     42 H          -3.4433   -0.6263   -5.5763 H       1  UNL1        0.0000
     43 H          -3.1905   -0.1130   -8.0049 H       1  UNL1        0.0000
     44 H          -2.2147   -1.5443   -7.4967 H       1  UNL1        0.0000
     45 H          -1.3957    0.0397   -7.7764 H       1  UNL1        0.0000
     46 H          -0.3755    3.0990   -5.4471 H       1  UNL1        0.0000
     47 H           2.0247    3.4115   -5.4676 H       1  UNL1        0.0000
     48 H           4.3057    3.0143   -4.3502 H       1  UNL1        0.0000
     49 H           5.5845    2.0591   -2.4484 H       1  UNL1        0.0000
     50 H           2.7552   -1.3846    5.2136 H       1  UNL1        0.0000
     51 H           2.3375   -2.6386    6.4356 H       1  UNL1        0.0000
     52 H           1.1225   -1.4043    5.9431 H       1  UNL1        0.0000
     53 H           2.3857   -4.4991    3.1322 H       1  UNL1        0.0000
     54 H           3.0730   -4.4613    4.7995 H       1  UNL1        0.0000
     55 H           3.5047   -3.1780    3.6186 H       1  UNL1        0.0000
     56 H           0.2449   -4.8108    4.2147 H       1  UNL1        0.0000
     57 H           0.7312   -4.4739    5.8981 H       1  UNL1        0.0000
     58 H          -0.8058   -2.4860    5.8842 H       1  UNL1        0.0000
     59 H          -1.6913   -4.0073    5.6166 H       1  UNL1        0.0000
     60 H          -3.1147   -1.3432    3.2481 H       1  UNL1        0.0000
     61 H          -2.2497   -0.9121    4.7649 H       1  UNL1        0.0000
     62 H          -3.4479   -2.2603    4.7579 H       1  UNL1        0.0000
     63 H          -2.5738   -3.4798    2.0262 H       1  UNL1        0.0000
     64 H          -1.3508   -4.6268    2.6517 H       1  UNL1        0.0000
     65 H          -2.9215   -4.4292    3.5114 H       1  UNL1        0.0000
     66 H           4.2281   -0.4571    1.5021 H       1  UNL1        0.0000
     67 H           5.5598    0.7446   -0.2304 H       1  UNL1        0.0000
     68 EU         -0.5195    0.3278   -0.8789 Eu      1  UNL1        0.0000
@<TRIPOS>BOND
     1     1     2    2
     2     2     3   am
     3     3     4    1
     4     3     5    1
     5     5     6    1
     6     6     7    1
     7     2     8    1
     8     8     9   ar
     9     9    10   ar
    10     8    11   ar
    11    11    12   ar
    12    12    13   ar
    13    10    13   ar
    14    13    14   ar
    15    14    15   ar
    16    15    16   ar
    17    16    17   ar
    18    12    17   ar
    19    17    18   ar
    20    18    19   ar
    21    19    20    1
    22    20    21   ar
    23    21    22   ar
    24    22    23    1
    25    23    24    1
    26    23    25    1
    27    23    26    1
    28    26    27    1
    29    27    28    1
    30    28    29    1
    31    28    30    1
    32    22    31   ar
    33    28    31    1
    34    31    32   ar
    35    32    33   ar
    36    20    33   ar
    37    19    34   ar
    38    34    35   ar
    39    16    35   ar
    40     4    36    1
    41     4    37    1
    42     4    38    1
    43     5    39    1
    44     5    40    1
    45     6    41    1
    46     6    42    1
    47     7    43    1
    48     7    44    1
    49     7    45    1
    50     9    46    1
    51    10    47    1
    52    14    48    1
    53    15    49    1
    54    24    50    1
    55    24    51    1
    56    24    52    1
    57    25    53    1
    58    25    54    1
    59    25    55    1
    60    26    56    1
    61    26    57    1
    62    27    58    1
    63    27    59    1
    64    29    60    1
    65    29    61    1
    66    29    62    1
    67    30    63    1
    68    30    64    1
    69    30    65    1
    70    34    66    1
    71    35    67    1
    72    68     1    1
    73    68    33    1
    74    68    18    1
    75    68    11    1
@<TRIPOS>MOLECULE
*****
 68 75 0 0 0
SMALL
GASTEIGER

@<TRIPOS>ATOM
      1 O          -2.1396    0.9327   -2.3083 O.2     1  UNL1        0.0000
      2 C          -1.8823    1.4986   -3.3806 C.2     1  UNL1        0.0000
      3 N          -2.9236    1.6528   -4.2761 N.am    1  UNL1        0.0000
      4 C          -4.2735    1.3605   -3.7972 C.3     1  UNL1        0.0000
      5 C          -2.7146    1.4370   -5.7094 C.3     1  UNL1        0.0000
      6 C          -2.5279   -0.0737   -5.9618 C.3     1  UNL1        0.0000
      7 C          -2.3201   -0.4004   -7.4338 C.3     1  UNL1        0.0000
      8 C          -0.4209    1.8536   -3.6199 C.ar    1  UNL1        0.0000
      9 C           0.1766    2.6166   -4.6609 C.ar    1  UNL1        0.0000
     10 C           1.5764    2.8254   -4.6672 C.ar    1  UNL1        0.0000
     11 N           0.4020    1.4226   -2.6477 N.ar    1  UNL1        0.0000
     12 C           1.7387    1.6023   -2.6204 C.ar    1  UNL1        0.0000
     13 C           2.3790    2.3023   -3.6382 C.ar    1  UNL1        0.0000
     14 C           3.7792    2.4660   -3.5710 C.ar    1  UNL1        0.0000
     15 C           4.5086    1.9233   -2.4851 C.ar    1  UNL1        0.0000
     16 C           3.8376    1.2238   -1.4596 C.ar    1  UNL1        0.0000
     17 C           2.4515    1.0816   -1.5504 C.ar    1  UNL1        0.0000
     18 N           1.7651    0.4345   -0.5902 N.ar    1  UNL1        0.0000
     19 C           2.3339   -0.1237    0.4947 C.ar    1  UNL1        0.0000
     20 C           1.4037   -0.8026    1.4202 C.ar    1  UNL1        0.0000
     21 N           1.8255   -1.4826    2.5131 N.ar    1  UNL1        0.0000
     22 C           0.9385   -2.1524    3.3050 C.ar    1  UNL1        0.0000
     23 C           1.4725   -2.9934    4.4580 C.3     1  UNL1        0.0000
     24 C           1.9515   -2.0446    5.5769 C.3     1  UNL1        0.0000
     25 C           2.6775   -3.8359    3.9811 C.3     1  UNL1        0.0000
     26 C           0.3919   -3.9887    4.9717 C.3     1  UNL1        0.0000
     27 C          -0.9541   -3.3007    5.1704 C.3     1  UNL1        0.0000
     28 C          -1.5232   -2.7601    3.8293 C.3     1  UNL1        0.0000
     29 C          -2.6489   -1.7601    4.1705 C.3     1  UNL1        0.0000
     30 C          -2.1220   -3.9004    2.9746 C.3     1  UNL1        0.0000
     31 C          -0.4451   -2.0729    3.0012 C.ar    1  UNL1        0.0000
     32 N          -0.8205   -1.3821    1.8925 N.ar    1  UNL1        0.0000
     33 N           0.0757   -0.7789    1.1195 N.ar    1  UNL1        0.0000
     34 C           3.7301   -0.0271    0.6458 C.ar    1  UNL1        0.0000
     35 C           4.4839    0.6566   -0.3395 C.ar    1  UNL1        0.0000
     36 H          -4.4826    1.9448   -2.8741 H       1  UNL1        0.0000
     37 H          -5.0401    1.6614   -4.5432 H       1  UNL1        0.0000
     38 H          -4.3855    0.2777   -3.5774 H       1  UNL1        0.0000
     39 H          -3.5955    1.7969   -6.2845 H       1  UNL1        0.0000
     40 H          -1.8685    1.9737   -6.1240 H       1  UNL1        0.0000
     41 H          -1.6462   -0.4405   -5.3920 H       1  UNL1        0.0000
     42 H          -3.4257   -0.6240   -5.6057 H       1  UNL1        0.0000
     43 H          -3.1975   -0.0727   -8.0292 H       1  UNL1        0.0000
     44 H          -2.2018   -1.4997   -7.5489 H       1  UNL1        0.0000
     45 H          -1.4029    0.0975   -7.8116 H       1  UNL1        0.0000
     46 H          -0.3721    3.0895   -5.4490 H       1  UNL1        0.0000
     47 H           2.0248    3.4033   -5.4658 H       1  UNL1        0.0000
     48 H           4.3042    3.0089   -4.3476 H       1  UNL1        0.0000
     49 H           5.5829    2.0544   -2.4452 H       1  UNL1        0.0000
     50 H           2.7623   -1.3806    5.2064 H       1  UNL1        0.0000
     51 H           2.3469   -2.6260    6.4377 H       1  UNL1        0.0000
     52 H           1.1318   -1.3931    5.9413 H       1  UNL1        0.0000
     53 H           2.3811   -4.5078    3.1462 H       1  UNL1        0.0000
     54 H           3.0740   -4.4603    4.8109 H       1  UNL1        0.0000
     55 H           3.5038   -3.1854    3.6202 H       1  UNL1        0.0000
     56 H           0.2451   -4.8103    4.2389 H       1  UNL1        0.0000
     57 H           0.7346   -4.4602    5.9184 H       1  UNL1        0.0000
     58 H          -0.8011   -2.4708    5.8903 H       1  UNL1        0.0000
     59 H          -1.6880   -3.9940    5.6369 H       1  UNL1        0.0000
     60 H          -3.1148   -1.3505    3.2483 H       1  UNL1        0.0000
     61 H          -2.2490   -0.9076    4.7611 H       1  UNL1        0.0000
     62 H          -3.4463   -2.2567    4.7651 H       1  UNL1        0.0000
     63 H          -2.5734   -3.4960    2.0421 H       1  UNL1        0.0000
     64 H          -1.3490   -4.6373    2.6749 H       1  UNL1        0.0000
     65 H          -2.9189   -4.4346    3.5348 H       1  UNL1        0.0000
     66 H           4.2263   -0.4642    1.5029 H       1  UNL1        0.0000
     67 H           5.5579    0.7394   -0.2280 H       1  UNL1        0.0000
     68 EU         -0.5208    0.3148   -0.8802 Eu      1  UNL1        0.0000
@<TRIPOS>BOND
     1     1     2    2
     2     2     3   am
     3     3     4    1
     4     3     5    1
     5     5     6    1
     6     6     7    1
     7     2     8    1
     8     8     9   ar
     9     9    10   ar
    10     8    11   ar
    11    11    12   ar
    12    12    13   ar
    13    10    13   ar
    14    13    14   ar
    15    14    15   ar
    16    15    16   ar
    17    16    17   ar
    18    12    17   ar
    19    17    18   ar
    20    18    19   ar
    21    19    20    1
    22    20    21   ar
    23    21    22   ar
    24    22    23    1
    25    23    24    1
    26    23    25    1
    27    23    26    1
    28    26    27    1
    29    27    28    1
    30    28    29    1
    31    28    30    1
    32    22    31   ar
    33    28    31    1
    34    31    32   ar
    35    32    33   ar
    36    20    33   ar
    37    19    34   ar
    38    34    35   ar
    39    16    35   ar
    40     4    36    1
    41     4    37    1
    42     4    38    1
    43     5    39    1
    44     5    40    1
    45     6    41    1
    46     6    42    1
    47     7    43    1
    48     7    44    1
    49     7    45    1
    50     9    46    1
    51    10    47    1
    52    14    48    1
    53    15    49    1
    54    24    50    1
    55    24    51    1
    56    24    52    1
    57    25    53    1
    58    25    54    1
    59    25    55    1
    60    26    56    1
    61    26    57    1
    62    27    58    1
    63    27    59    1
    64    29    60    1
    65    29    61    1
    66    29    62    1
    67    30    63    1
    68    30    64    1
    69    30    65    1
    70    34    66    1
    71    35    67    1
    72    68     1    1
    73    68    33    1
    74    68    18    1
    75    68    11    1
@<TRIPOS>MOLECULE
*****
 68 75 0 0 0
SMALL
GASTEIGER

@<TRIPOS>ATOM
      1 O          -2.1399    0.9169   -2.3112 O.2     1  UNL1        0.0000
      2 C          -1.8841    1.4819   -3.3840 C.2     1  UNL1        0.0000
      3 N          -2.9287    1.6351   -4.2770 N.am    1  UNL1        0.0000
      4 C          -4.2766    1.3394   -3.7958 C.3     1  UNL1        0.0000
      5 C          -2.7254    1.4493   -5.7144 C.3     1  UNL1        0.0000
      6 C          -2.5163   -0.0536   -5.9913 C.3     1  UNL1        0.0000
      7 C          -2.3180   -0.3559   -7.4696 C.3     1  UNL1        0.0000
      8 C          -0.4227    1.8390   -3.6230 C.ar    1  UNL1        0.0000
      9 C           0.1764    2.6025   -4.6636 C.ar    1  UNL1        0.0000
     10 C           1.5769    2.8133   -4.6679 C.ar    1  UNL1        0.0000
     11 N           0.4009    1.4103   -2.6493 N.ar    1  UNL1        0.0000
     12 C           1.7381    1.5919   -2.6205 C.ar    1  UNL1        0.0000
     13 C           2.3781    2.2921   -3.6384 C.ar    1  UNL1        0.0000
     14 C           3.7783    2.4578   -3.5692 C.ar    1  UNL1        0.0000
     15 C           4.5075    1.9156   -2.4831 C.ar    1  UNL1        0.0000
     16 C           3.8366    1.2156   -1.4581 C.ar    1  UNL1        0.0000
     17 C           2.4502    1.0730   -1.5498 C.ar    1  UNL1        0.0000
     18 N           1.7646    0.4244   -0.5902 N.ar    1  UNL1        0.0000
     19 C           2.3338   -0.1323    0.4949 C.ar    1  UNL1        0.0000
     20 C           1.4038   -0.8112    1.4217 C.ar    1  UNL1        0.0000
     21 N           1.8263   -1.4881    2.5161 N.ar    1  UNL1        0.0000
     22 C           0.9407   -2.1569    3.3094 C.ar    1  UNL1        0.0000
     23 C           1.4761   -2.9922    4.4658 C.3     1  UNL1        0.0000
     24 C           1.9590   -2.0373    5.5778 C.3     1  UNL1        0.0000
     25 C           2.6776   -3.8399    3.9907 C.3     1  UNL1        0.0000
     26 C           0.3947   -3.9823    4.9886 C.3     1  UNL1        0.0000
     27 C          -0.9508   -3.2919    5.1835 C.3     1  UNL1        0.0000
     28 C          -1.5212   -2.7614    3.8384 C.3     1  UNL1        0.0000
     29 C          -2.6476   -1.7603    4.1737 C.3     1  UNL1        0.0000
     30 C          -2.1196   -3.9082    2.9923 C.3     1  UNL1        0.0000
     31 C          -0.4437   -2.0789    3.0056 C.ar    1  UNL1        0.0000
     32 N          -0.8196   -1.3914    1.8941 N.ar    1  UNL1        0.0000
     33 N           0.0759   -0.7890    1.1203 N.ar    1  UNL1        0.0000
     34 C           3.7293   -0.0346    0.6469 C.ar    1  UNL1        0.0000
     35 C           4.4832    0.6491   -0.3383 C.ar    1  UNL1        0.0000
     36 H          -4.4908    1.9338   -2.8811 H       1  UNL1        0.0000
     37 H          -5.0459    1.6218   -4.5461 H       1  UNL1        0.0000
     38 H          -4.3788    0.2581   -3.5631 H       1  UNL1        0.0000
     39 H          -3.6173    1.8011   -6.2774 H       1  UNL1        0.0000
     40 H          -1.8969    2.0134   -6.1267 H       1  UNL1        0.0000
     41 H          -1.6242   -0.4155   -5.4346 H       1  UNL1        0.0000
     42 H          -3.4029   -0.6221   -5.6343 H       1  UNL1        0.0000
     43 H          -3.2054   -0.0317   -8.0521 H       1  UNL1        0.0000
     44 H          -2.1860   -1.4517   -7.6018 H       1  UNL1        0.0000
     45 H          -1.4112    0.1600   -7.8481 H       1  UNL1        0.0000
     46 H          -0.3673    3.0755   -5.4535 H       1  UNL1        0.0000
     47 H           2.0253    3.3926   -5.4660 H       1  UNL1        0.0000
     48 H           4.3037    3.0009   -4.3456 H       1  UNL1        0.0000
     49 H           5.5818    2.0478   -2.4426 H       1  UNL1        0.0000
     50 H           2.7695   -1.3768    5.2008 H       1  UNL1        0.0000
     51 H           2.3557   -2.6142    6.4409 H       1  UNL1        0.0000
     52 H           1.1407   -1.3828    5.9403 H       1  UNL1        0.0000
     53 H           2.3771   -4.5164    3.1610 H       1  UNL1        0.0000
     54 H           3.0751   -4.4599    4.8232 H       1  UNL1        0.0000
     55 H           3.5036   -3.1932    3.6232 H       1  UNL1        0.0000
     56 H           0.2457   -4.8097    4.2627 H       1  UNL1        0.0000
     57 H           0.7378   -4.4472    5.9385 H       1  UNL1        0.0000
     58 H          -0.7964   -2.4564    5.8965 H       1  UNL1        0.0000
     59 H          -1.6847   -3.9812    5.6561 H       1  UNL1        0.0000
     60 H          -3.1146   -1.3577    3.2489 H       1  UNL1        0.0000
     61 H          -2.2480   -0.9032    4.7580 H       1  UNL1        0.0000
     62 H          -3.4439   -2.2534    4.7723 H       1  UNL1        0.0000
     63 H          -2.5720   -3.5106    2.0573 H       1  UNL1        0.0000
     64 H          -1.3465   -4.6467    2.6972 H       1  UNL1        0.0000
     65 H          -2.9157   -4.4389    3.5569 H       1  UNL1        0.0000
     66 H           4.2256   -0.4713    1.5044 H       1  UNL1        0.0000
     67 H           5.5567    0.7329   -0.2261 H       1  UNL1        0.0000
     68 EU         -0.5210    0.3020   -0.8814 Eu      1  UNL1        0.0000
@<TRIPOS>BOND
     1     1     2    2
     2     2     3   am
     3     3     4    1
     4     3     5    1
     5     5     6    1
     6     6     7    1
     7     2     8    1
     8     8     9   ar
     9     9    10   ar
    10     8    11   ar
    11    11    12   ar
    12    12    13   ar
    13    10    13   ar
    14    13    14   ar
    15    14    15   ar
    16    15    16   ar
    17    16    17   ar
    18    12    17   ar
    19    17    18   ar
    20    18    19   ar
    21    19    20    1
    22    20    21   ar
    23    21    22   ar
    24    22    23    1
    25    23    24    1
    26    23    25    1
    27    23    26    1
    28    26    27    1
    29    27    28    1
    30    28    29    1
    31    28    30    1
    32    22    31   ar
    33    28    31    1
    34    31    32   ar
    35    32    33   ar
    36    20    33   ar
    37    19    34   ar
    38    34    35   ar
    39    16    35   ar
    40     4    36    1
    41     4    37    1
    42     4    38    1
    43     5    39    1
    44     5    40    1
    45     6    41    1
    46     6    42    1
    47     7    43    1
    48     7    44    1
    49     7    45    1
    50     9    46    1
    51    10    47    1
    52    14    48    1
    53    15    49    1
    54    24    50    1
    55    24    51    1
    56    24    52    1
    57    25    53    1
    58    25    54    1
    59    25    55    1
    60    26    56    1
    61    26    57    1
    62    27    58    1
    63    27    59    1
    64    29    60    1
    65    29    61    1
    66    29    62    1
    67    30    63    1
    68    30    64    1
    69    30    65    1
    70    34    66    1
    71    35    67    1
    72    68     1    1
    73    68    33    1
    74    68    18    1
    75    68    11    1
@<TRIPOS>MOLECULE
*****
 68 75 0 0 0
SMALL
GASTEIGER

@<TRIPOS>ATOM
      1 O          -2.1396    0.8995   -2.3132 O.2     1  UNL1        0.0000
      2 C          -1.8859    1.4630   -3.3871 C.2     1  UNL1        0.0000
      3 N          -2.9334    1.6117   -4.2777 N.am    1  UNL1        0.0000
      4 C          -4.2811    1.3194   -3.7939 C.3     1  UNL1        0.0000
      5 C          -2.7391    1.4623   -5.7198 C.3     1  UNL1        0.0000
      6 C          -2.5008   -0.0308   -6.0232 C.3     1  UNL1        0.0000
      7 C          -2.3145   -0.3085   -7.5075 C.3     1  UNL1        0.0000
      8 C          -0.4239    1.8220   -3.6276 C.ar    1  UNL1        0.0000
      9 C           0.1763    2.5851   -4.6679 C.ar    1  UNL1        0.0000
     10 C           1.5758    2.7984   -4.6713 C.ar    1  UNL1        0.0000
     11 N           0.4001    1.3950   -2.6528 N.ar    1  UNL1        0.0000
     12 C           1.7372    1.5771   -2.6238 C.ar    1  UNL1        0.0000
     13 C           2.3774    2.2792   -3.6406 C.ar    1  UNL1        0.0000
     14 C           3.7769    2.4483   -3.5702 C.ar    1  UNL1        0.0000
     15 C           4.5065    1.9076   -2.4833 C.ar    1  UNL1        0.0000
     16 C           3.8353    1.2057   -1.4590 C.ar    1  UNL1        0.0000
     17 C           2.4494    1.0613   -1.5523 C.ar    1  UNL1        0.0000
     18 N           1.7650    0.4135   -0.5912 N.ar    1  UNL1        0.0000
     19 C           2.3326   -0.1417    0.4953 C.ar    1  UNL1        0.0000
     20 C           1.4032   -0.8191    1.4215 C.ar    1  UNL1        0.0000
     21 N           1.8274   -1.4930    2.5188 N.ar    1  UNL1        0.0000
     22 C           0.9432   -2.1604    3.3136 C.ar    1  UNL1        0.0000
     23 C           1.4785   -2.9910    4.4736 C.3     1  UNL1        0.0000
     24 C           1.9653   -2.0306    5.5789 C.3     1  UNL1        0.0000
     25 C           2.6775   -3.8428    3.9998 C.3     1  UNL1        0.0000
     26 C           0.3968   -3.9762    5.0043 C.3     1  UNL1        0.0000
     27 C          -0.9479   -3.2835    5.1958 C.3     1  UNL1        0.0000
     28 C          -1.5191   -2.7626    3.8474 C.3     1  UNL1        0.0000
     29 C          -2.6464   -1.7603    4.1766 C.3     1  UNL1        0.0000
     30 C          -2.1172   -3.9152    3.0090 C.3     1  UNL1        0.0000
     31 C          -0.4420   -2.0836    3.0107 C.ar    1  UNL1        0.0000
     32 N          -0.8188   -1.3999    1.8975 N.ar    1  UNL1        0.0000
     33 N           0.0754   -0.7996    1.1213 N.ar    1  UNL1        0.0000
     34 C           3.7296   -0.0419    0.6469 C.ar    1  UNL1        0.0000
     35 C           4.4821    0.6424   -0.3375 C.ar    1  UNL1        0.0000
     36 H          -4.5029    1.9377   -2.8971 H       1  UNL1        0.0000
     37 H          -5.0528    1.5689   -4.5533 H       1  UNL1        0.0000
     38 H          -4.3733    0.2438   -3.5317 H       1  UNL1        0.0000
     39 H          -3.6449    1.7997   -6.2691 H       1  UNL1        0.0000
     40 H          -1.9348    2.0617   -6.1294 H       1  UNL1        0.0000
     41 H          -1.5964   -0.3840   -5.4813 H       1  UNL1        0.0000
     42 H          -3.3729   -0.6208   -5.6639 H       1  UNL1        0.0000
     43 H          -3.2140    0.0084   -8.0753 H       1  UNL1        0.0000
     44 H          -2.1660   -1.4002   -7.6562 H       1  UNL1        0.0000
     45 H          -1.4208    0.2279   -7.8879 H       1  UNL1        0.0000
     46 H          -0.3633    3.0560   -5.4608 H       1  UNL1        0.0000
     47 H           2.0248    3.3774   -5.4694 H       1  UNL1        0.0000
     48 H           4.3017    2.9928   -4.3456 H       1  UNL1        0.0000
     49 H           5.5795    2.0434   -2.4409 H       1  UNL1        0.0000
     50 H           2.7758   -1.3732    5.1964 H       1  UNL1        0.0000
     51 H           2.3635   -2.6031    6.4441 H       1  UNL1        0.0000
     52 H           1.1488   -1.3729    5.9397 H       1  UNL1        0.0000
     53 H           2.3738   -4.5236    3.1747 H       1  UNL1        0.0000
     54 H           3.0761   -4.4586    4.8349 H       1  UNL1        0.0000
     55 H           3.5036   -3.1994    3.6266 H       1  UNL1        0.0000
     56 H           0.2463   -4.8087    4.2848 H       1  UNL1        0.0000
     57 H           0.7409   -4.4345    5.9572 H       1  UNL1        0.0000
     58 H          -0.7922   -2.4427    5.9022 H       1  UNL1        0.0000
     59 H          -1.6817   -3.9689    5.6742 H       1  UNL1        0.0000
     60 H          -3.1144   -1.3643    3.2494 H       1  UNL1        0.0000
     61 H          -2.2474   -0.8989    4.7548 H       1  UNL1        0.0000
     62 H          -3.4421   -2.2501    4.7790 H       1  UNL1        0.0000
     63 H          -2.5705   -3.5241    2.0717 H       1  UNL1        0.0000
     64 H          -1.3437   -4.6550    2.7182 H       1  UNL1        0.0000
     65 H          -2.9124   -4.4430    3.5776 H       1  UNL1        0.0000
     66 H           4.2254   -0.4765    1.5060 H       1  UNL1        0.0000
     67 H           5.5554    0.7289   -0.2245 H       1  UNL1        0.0000
     68 EU         -0.5204    0.2883   -0.8828 Eu      1  UNL1        0.0000
@<TRIPOS>BOND
     1     1     2    2
     2     2     3   am
     3     3     4    1
     4     3     5    1
     5     5     6    1
     6     6     7    1
     7     2     8    1
     8     8     9   ar
     9     9    10   ar
    10     8    11   ar
    11    11    12   ar
    12    12    13   ar
    13    10    13   ar
    14    13    14   ar
    15    14    15   ar
    16    15    16   ar
    17    16    17   ar
    18    12    17   ar
    19    17    18   ar
    20    18    19   ar
    21    19    20    1
    22    20    21   ar
    23    21    22   ar
    24    22    23    1
    25    23    24    1
    26    23    25    1
    27    23    26    1
    28    26    27    1
    29    27    28    1
    30    28    29    1
    31    28    30    1
    32    22    31   ar
    33    28    31    1
    34    31    32   ar
    35    32    33   ar
    36    20    33   ar
    37    19    34   ar
    38    34    35   ar
    39    16    35   ar
    40     4    36    1
    41     4    37    1
    42     4    38    1
    43     5    39    1
    44     5    40    1
    45     6    41    1
    46     6    42    1
    47     7    43    1
    48     7    44    1
    49     7    45    1
    50     9    46    1
    51    10    47    1
    52    14    48    1
    53    15    49    1
    54    24    50    1
    55    24    51    1
    56    24    52    1
    57    25    53    1
    58    25    54    1
    59    25    55    1
    60    26    56    1
    61    26    57    1
    62    27    58    1
    63    27    59    1
    64    29    60    1
    65    29    61    1
    66    29    62    1
    67    30    63    1
    68    30    64    1
    69    30    65    1
    70    34    66    1
    71    35    67    1
    72    68     1    1
    73    68    33    1
    74    68    18    1
    75    68    11    1
@<TRIPOS>MOLECULE
*****
 68 75 0 0 0
SMALL
GASTEIGER

@<TRIPOS>ATOM
      1 O          -2.1401    0.8792   -2.3133 O.2     1  UNL1        0.0000
      2 C          -1.8885    1.4393   -3.3894 C.2     1  UNL1        0.0000
      3 N          -2.9390    1.5781   -4.2778 N.am    1  UNL1        0.0000
      4 C          -4.2887    1.3033   -3.7886 C.3     1  UNL1        0.0000
      5 C          -2.7559    1.4758   -5.7243 C.3     1  UNL1        0.0000
      6 C          -2.4792   -0.0041   -6.0579 C.3     1  UNL1        0.0000
      7 C          -2.3088   -0.2571   -7.5476 C.3     1  UNL1        0.0000
      8 C          -0.4263    1.8019   -3.6319 C.ar    1  UNL1        0.0000
      9 C           0.1749    2.5620   -4.6747 C.ar    1  UNL1        0.0000
     10 C           1.5734    2.7795   -4.6767 C.ar    1  UNL1        0.0000
     11 N           0.3988    1.3799   -2.6554 N.ar    1  UNL1        0.0000
     12 C           1.7353    1.5662   -2.6258 C.ar    1  UNL1        0.0000
     13 C           2.3758    2.2649   -3.6438 C.ar    1  UNL1        0.0000
     14 C           3.7746    2.4371   -3.5726 C.ar    1  UNL1        0.0000
     15 C           4.5043    1.9004   -2.4835 C.ar    1  UNL1        0.0000
     16 C           3.8349    1.1993   -1.4590 C.ar    1  UNL1        0.0000
     17 C           2.4486    1.0510   -1.5526 C.ar    1  UNL1        0.0000
     18 N           1.7645    0.4031   -0.5918 N.ar    1  UNL1        0.0000
     19 C           2.3336   -0.1493    0.4961 C.ar    1  UNL1        0.0000
     20 C           1.4041   -0.8276    1.4226 C.ar    1  UNL1        0.0000
     21 N           1.8278   -1.4972    2.5224 N.ar    1  UNL1        0.0000
     22 C           0.9434   -2.1628    3.3190 C.ar    1  UNL1        0.0000
     23 C           1.4809   -2.9883    4.4813 C.3     1  UNL1        0.0000
     24 C           1.9715   -2.0234    5.5813 C.3     1  UNL1        0.0000
     25 C           2.6777   -3.8442    4.0092 C.3     1  UNL1        0.0000
     26 C           0.3992   -3.9693    5.0194 C.3     1  UNL1        0.0000
     27 C          -0.9449   -3.2744    5.2074 C.3     1  UNL1        0.0000
     28 C          -1.5172   -2.7627    3.8559 C.3     1  UNL1        0.0000
     29 C          -2.6453   -1.7592    4.1796 C.3     1  UNL1        0.0000
     30 C          -2.1142   -3.9204    3.0243 C.3     1  UNL1        0.0000
     31 C          -0.4415   -2.0877    3.0149 C.ar    1  UNL1        0.0000
     32 N          -0.8193   -1.4073    1.8994 N.ar    1  UNL1        0.0000
     33 N           0.0760   -0.8069    1.1228 N.ar    1  UNL1        0.0000
     34 C           3.7293   -0.0472    0.6487 C.ar    1  UNL1        0.0000
     35 C           4.4815    0.6357   -0.3366 C.ar    1  UNL1        0.0000
     36 H          -4.5208    1.9682   -2.9291 H       1  UNL1        0.0000
     37 H          -5.0607    1.4942   -4.5643 H       1  UNL1        0.0000
     38 H          -4.3716    0.2426   -3.4682 H       1  UNL1        0.0000
     39 H          -3.6795    1.7886   -6.2579 H       1  UNL1        0.0000
     40 H          -1.9861    2.1222   -6.1283 H       1  UNL1        0.0000
     41 H          -1.5601   -0.3441   -5.5328 H       1  UNL1        0.0000
     42 H          -3.3322   -0.6207   -5.6948 H       1  UNL1        0.0000
     43 H          -3.2229    0.0477   -8.0981 H       1  UNL1        0.0000
     44 H          -2.1404   -1.3438   -7.7124 H       1  UNL1        0.0000
     45 H          -1.4315    0.3026   -7.9319 H       1  UNL1        0.0000
     46 H          -0.3611    3.0282   -5.4710 H       1  UNL1        0.0000
     47 H           2.0223    3.3570   -5.4756 H       1  UNL1        0.0000
     48 H           4.2982    2.9807   -4.3491 H       1  UNL1        0.0000
     49 H           5.5769    2.0373   -2.4412 H       1  UNL1        0.0000
     50 H           2.7823   -1.3688    5.1941 H       1  UNL1        0.0000
     51 H           2.3709   -2.5924    6.4483 H       1  UNL1        0.0000
     52 H           1.1566   -1.3629    5.9409 H       1  UNL1        0.0000
     53 H           2.3710   -4.5283    3.1881 H       1  UNL1        0.0000
     54 H           3.0773   -4.4566    4.8462 H       1  UNL1        0.0000
     55 H           3.5039   -3.2039    3.6308 H       1  UNL1        0.0000
     56 H           0.2474   -4.8058    4.3050 H       1  UNL1        0.0000
     57 H           0.7440   -4.4221    5.9745 H       1  UNL1        0.0000
     58 H          -0.7879   -2.4287    5.9081 H       1  UNL1        0.0000
     59 H          -1.6783   -3.9562    5.6908 H       1  UNL1        0.0000
     60 H          -3.1140   -1.3694    3.2504 H       1  UNL1        0.0000
     61 H          -2.2471   -0.8938    4.7529 H       1  UNL1        0.0000
     62 H          -3.4401   -2.2465    4.7853 H       1  UNL1        0.0000
     63 H          -2.5678   -3.5348    2.0850 H       1  UNL1        0.0000
     64 H          -1.3399   -4.6608    2.7375 H       1  UNL1        0.0000
     65 H          -2.9084   -4.4456    3.5964 H       1  UNL1        0.0000
     66 H           4.2255   -0.4798    1.5078 H       1  UNL1        0.0000
     67 H           5.5540    0.7252   -0.2242 H       1  UNL1        0.0000
     68 EU         -0.5195    0.2753   -0.8835 Eu      1  UNL1        0.0000
@<TRIPOS>BOND
     1     1     2    2
     2     2     3   am
     3     3     4    1
     4     3     5    1
     5     5     6    1
     6     6     7    1
     7     2     8    1
     8     8     9   ar
     9     9    10   ar
    10     8    11   ar
    11    11    12   ar
    12    12    13   ar
    13    10    13   ar
    14    13    14   ar
    15    14    15   ar
    16    15    16   ar
    17    16    17   ar
    18    12    17   ar
    19    17    18   ar
    20    18    19   ar
    21    19    20    1
    22    20    21   ar
    23    21    22   ar
    24    22    23    1
    25    23    24    1
    26    23    25    1
    27    23    26    1
    28    26    27    1
    29    27    28    1
    30    28    29    1
    31    28    30    1
    32    22    31   ar
    33    28    31    1
    34    31    32   ar
    35    32    33   ar
    36    20    33   ar
    37    19    34   ar
    38    34    35   ar
    39    16    35   ar
    40     4    36    1
    41     4    37    1
    42     4    38    1
    43     5    39    1
    44     5    40    1
    45     6    41    1
    46     6    42    1
    47     7    43    1
    48     7    44    1
    49     7    45    1
    50     9    46    1
    51    10    47    1
    52    14    48    1
    53    15    49    1
    54    24    50    1
    55    24    51    1
    56    24    52    1
    57    25    53    1
    58    25    54    1
    59    25    55    1
    60    26    56    1
    61    26    57    1
    62    27    58    1
    63    27    59    1
    64    29    60    1
    65    29    61    1
    66    29    62    1
    67    30    63    1
    68    30    64    1
    69    30    65    1
    70    34    66    1
    71    35    67    1
    72    68     1    1
    73    68    33    1
    74    68    18    1
    75    68    11    1
@<TRIPOS>MOLECULE
*****
 68 75 0 0 0
SMALL
GASTEIGER

@<TRIPOS>ATOM
      1 O          -2.1404    0.8496   -2.3117 O.2     1  UNL1        0.0000
      2 C          -1.8920    1.4049   -3.3921 C.2     1  UNL1        0.0000
      3 N          -2.9461    1.5298   -4.2778 N.am    1  UNL1        0.0000
      4 C          -4.2993    1.2934   -3.7773 C.3     1  UNL1        0.0000
      5 C          -2.7773    1.4880   -5.7273 C.3     1  UNL1        0.0000
      6 C          -2.4421    0.0299   -6.1001 C.3     1  UNL1        0.0000
      7 C          -2.2966   -0.1934   -7.5961 C.3     1  UNL1        0.0000
      8 C          -0.4292    1.7712   -3.6380 C.ar    1  UNL1        0.0000
      9 C           0.1730    2.5228   -4.6868 C.ar    1  UNL1        0.0000
     10 C           1.5712    2.7485   -4.6849 C.ar    1  UNL1        0.0000
     11 N           0.3966    1.3575   -2.6578 N.ar    1  UNL1        0.0000
     12 C           1.7327    1.5472   -2.6270 C.ar    1  UNL1        0.0000
     13 C           2.3723    2.2440   -3.6471 C.ar    1  UNL1        0.0000
     14 C           3.7705    2.4216   -3.5749 C.ar    1  UNL1        0.0000
     15 C           4.5008    1.8904   -2.4818 C.ar    1  UNL1        0.0000
     16 C           3.8322    1.1917   -1.4573 C.ar    1  UNL1        0.0000
     17 C           2.4470    1.0393   -1.5508 C.ar    1  UNL1        0.0000
     18 N           1.7642    0.3936   -0.5885 N.ar    1  UNL1        0.0000
     19 C           2.3331   -0.1537    0.5032 C.ar    1  UNL1        0.0000
     20 C           1.4050   -0.8311    1.4299 C.ar    1  UNL1        0.0000
     21 N           1.8299   -1.4987    2.5289 N.ar    1  UNL1        0.0000
     22 C           0.9455   -2.1623    3.3265 C.ar    1  UNL1        0.0000
     23 C           1.4827   -2.9857    4.4905 C.3     1  UNL1        0.0000
     24 C           1.9768   -2.0167    5.5848 C.3     1  UNL1        0.0000
     25 C           2.6776   -3.8449    4.0189 C.3     1  UNL1        0.0000
     26 C           0.4010   -3.9636    5.0348 C.3     1  UNL1        0.0000
     27 C          -0.9427   -3.2674    5.2201 C.3     1  UNL1        0.0000
     28 C          -1.5159   -2.7631    3.8660 C.3     1  UNL1        0.0000
     29 C          -2.6451   -1.7596    4.1847 C.3     1  UNL1        0.0000
     30 C          -2.1117   -3.9257    3.0399 C.3     1  UNL1        0.0000
     31 C          -0.4401   -2.0923    3.0230 C.ar    1  UNL1        0.0000
     32 N          -0.8188   -1.4164    1.9075 N.ar    1  UNL1        0.0000
     33 N           0.0746   -0.8151    1.1280 N.ar    1  UNL1        0.0000
     34 C           3.7285   -0.0480    0.6553 C.ar    1  UNL1        0.0000
     35 C           4.4792    0.6349   -0.3322 C.ar    1  UNL1        0.0000
     36 H          -4.5400    2.0297   -2.9814 H       1  UNL1        0.0000
     37 H          -5.0700    1.3977   -4.5702 H       1  UNL1        0.0000
     38 H          -4.3790    0.2643   -3.3659 H       1  UNL1        0.0000
     39 H          -3.7252    1.7556   -6.2422 H       1  UNL1        0.0000
     40 H          -2.0636    2.2048   -6.1194 H       1  UNL1        0.0000
     41 H          -1.5026   -0.2869   -5.5980 H       1  UNL1        0.0000
     42 H          -3.2657   -0.6244   -5.7321 H       1  UNL1        0.0000
     43 H          -3.2316    0.0905   -8.1225 H       1  UNL1        0.0000
     44 H          -2.1006   -1.2726   -7.7802 H       1  UNL1        0.0000
     45 H          -1.4446    0.3979   -7.9881 H       1  UNL1        0.0000
     46 H          -0.3589    2.9776   -5.4905 H       1  UNL1        0.0000
     47 H           2.0201    3.3227   -5.4871 H       1  UNL1        0.0000
     48 H           4.2949    2.9645   -4.3516 H       1  UNL1        0.0000
     49 H           5.5742    2.0310   -2.4404 H       1  UNL1        0.0000
     50 H           2.7872   -1.3649    5.1924 H       1  UNL1        0.0000
     51 H           2.3777   -2.5821    6.4532 H       1  UNL1        0.0000
     52 H           1.1631   -1.3539    5.9428 H       1  UNL1        0.0000
     53 H           2.3686   -4.5325    3.2015 H       1  UNL1        0.0000
     54 H           3.0787   -4.4540    4.8576 H       1  UNL1        0.0000
     55 H           3.5036   -3.2072    3.6357 H       1  UNL1        0.0000
     56 H           0.2485   -4.8043    4.3255 H       1  UNL1        0.0000
     57 H           0.7468   -4.4111    5.9922 H       1  UNL1        0.0000
     58 H          -0.7849   -2.4175    5.9150 H       1  UNL1        0.0000
     59 H          -1.6760   -3.9465    5.7078 H       1  UNL1        0.0000
     60 H          -3.1143   -1.3751    3.2532 H       1  UNL1        0.0000
     61 H          -2.2474   -0.8908    4.7527 H       1  UNL1        0.0000
     62 H          -3.4395   -2.2442    4.7928 H       1  UNL1        0.0000
     63 H          -2.5660   -3.5456    2.0985 H       1  UNL1        0.0000
     64 H          -1.3370   -4.6671    2.7563 H       1  UNL1        0.0000
     65 H          -2.9055   -4.4491    3.6144 H       1  UNL1        0.0000
     66 H           4.2251   -0.4783    1.5151 H       1  UNL1        0.0000
     67 H           5.5538    0.7231   -0.2194 H       1  UNL1        0.0000
     68 EU         -0.5168    0.2581   -0.8819 Eu      1  UNL1        0.0000
@<TRIPOS>BOND
     1     1     2    2
     2     2     3   am
     3     3     4    1
     4     3     5    1
     5     5     6    1
     6     6     7    1
     7     2     8    1
     8     8     9   ar
     9     9    10   ar
    10     8    11   ar
    11    11    12   ar
    12    12    13   ar
    13    10    13   ar
    14    13    14   ar
    15    14    15   ar
    16    15    16   ar
    17    16    17   ar
    18    12    17   ar
    19    17    18   ar
    20    18    19   ar
    21    19    20    1
    22    20    21   ar
    23    21    22   ar
    24    22    23    1
    25    23    24    1
    26    23    25    1
    27    23    26    1
    28    26    27    1
    29    27    28    1
    30    28    29    1
    31    28    30    1
    32    22    31   ar
    33    28    31    1
    34    31    32   ar
    35    32    33   ar
    36    20    33   ar
    37    19    34   ar
    38    34    35   ar
    39    16    35   ar
    40     4    36    1
    41     4    37    1
    42     4    38    1
    43     5    39    1
    44     5    40    1
    45     6    41    1
    46     6    42    1
    47     7    43    1
    48     7    44    1
    49     7    45    1
    50     9    46    1
    51    10    47    1
    52    14    48    1
    53    15    49    1
    54    24    50    1
    55    24    51    1
    56    24    52    1
    57    25    53    1
    58    25    54    1
    59    25    55    1
    60    26    56    1
    61    26    57    1
    62    27    58    1
    63    27    59    1
    64    29    60    1
    65    29    61    1
    66    29    62    1
    67    30    63    1
    68    30    64    1
    69    30    65    1
    70    34    66    1
    71    35    67    1
    72    68     1    1
    73    68    33    1
    74    68    18    1
    75    68    11    1
@<TRIPOS>MOLECULE
*****
 68 75 0 0 0
SMALL
GASTEIGER

@<TRIPOS>ATOM
      1 O          -2.1440    0.8165   -2.3116 O.2     1  UNL1        0.0000
      2 C          -1.8991    1.3642   -3.3954 C.2     1  UNL1        0.0000
      3 N          -2.9587    1.4830   -4.2765 N.am    1  UNL1        0.0000
      4 C          -4.3135    1.2873   -3.7620 C.3     1  UNL1        0.0000
      5 C          -2.8037    1.4954   -5.7281 C.3     1  UNL1        0.0000
      6 C          -2.3862    0.0712   -6.1450 C.3     1  UNL1        0.0000
      7 C          -2.2742   -0.1147   -7.6489 C.3     1  UNL1        0.0000
      8 C          -0.4359    1.7310   -3.6476 C.ar    1  UNL1        0.0000
      9 C           0.1656    2.4679   -4.7061 C.ar    1  UNL1        0.0000
     10 C           1.5623    2.7023   -4.7024 C.ar    1  UNL1        0.0000
     11 N           0.3905    1.3330   -2.6620 N.ar    1  UNL1        0.0000
     12 C           1.7276    1.5265   -2.6341 C.ar    1  UNL1        0.0000
     13 C           2.3659    2.2166   -3.6568 C.ar    1  UNL1        0.0000
     14 C           3.7620    2.4042   -3.5832 C.ar    1  UNL1        0.0000
     15 C           4.4941    1.8837   -2.4867 C.ar    1  UNL1        0.0000
     16 C           3.8274    1.1839   -1.4575 C.ar    1  UNL1        0.0000
     17 C           2.4432    1.0276   -1.5512 C.ar    1  UNL1        0.0000
     18 N           1.7621    0.3831   -0.5864 N.ar    1  UNL1        0.0000
     19 C           2.3323   -0.1578    0.5066 C.ar    1  UNL1        0.0000
     20 C           1.4058   -0.8346    1.4372 C.ar    1  UNL1        0.0000
     21 N           1.8311   -1.4995    2.5372 N.ar    1  UNL1        0.0000
     22 C           0.9479   -2.1625    3.3365 C.ar    1  UNL1        0.0000
     23 C           1.4863   -2.9836    4.5016 C.3     1  UNL1        0.0000
     24 C           1.9834   -2.0109    5.5912 C.3     1  UNL1        0.0000
     25 C           2.6786   -3.8469    4.0311 C.3     1  UNL1        0.0000
     26 C           0.4039   -3.9576    5.0526 C.3     1  UNL1        0.0000
     27 C          -0.9391   -3.2593    5.2349 C.3     1  UNL1        0.0000
     28 C          -1.5124   -2.7628    3.8781 C.3     1  UNL1        0.0000
     29 C          -2.6430   -1.7588    4.1910 C.3     1  UNL1        0.0000
     30 C          -2.1069   -3.9298    3.0575 C.3     1  UNL1        0.0000
     31 C          -0.4373   -2.0925    3.0329 C.ar    1  UNL1        0.0000
     32 N          -0.8156   -1.4200    1.9144 N.ar    1  UNL1        0.0000
     33 N           0.0781   -0.8223    1.1345 N.ar    1  UNL1        0.0000
     34 C           3.7274   -0.0499    0.6613 C.ar    1  UNL1        0.0000
     35 C           4.4761    0.6335   -0.3295 C.ar    1  UNL1        0.0000
     36 H          -4.5481    2.0768   -3.0168 H       1  UNL1        0.0000
     37 H          -5.0869    1.3378   -4.5575 H       1  UNL1        0.0000
     38 H          -4.4014    0.2888   -3.2830 H       1  UNL1        0.0000
     39 H          -3.7741    1.7013   -6.2271 H       1  UNL1        0.0000
     40 H          -2.1588    2.2894   -6.1000 H       1  UNL1        0.0000
     41 H          -1.4193   -0.2051   -5.6731 H       1  UNL1        0.0000
     42 H          -3.1639   -0.6358   -5.7724 H       1  UNL1        0.0000
     43 H          -3.2368    0.1337   -8.1431 H       1  UNL1        0.0000
     44 H          -2.0354   -1.1803   -7.8605 H       1  UNL1        0.0000
     45 H          -1.4627    0.5233   -8.0526 H       1  UNL1        0.0000
     46 H          -0.3666    2.9025   -5.5184 H       1  UNL1        0.0000
     47 H           2.0109    3.2695   -5.5099 H       1  UNL1        0.0000
     48 H           4.2874    2.9420   -4.3624 H       1  UNL1        0.0000
     49 H           5.5662    2.0254   -2.4426 H       1  UNL1        0.0000
     50 H           2.7935   -1.3614    5.1942 H       1  UNL1        0.0000
     51 H           2.3857   -2.5728    6.4612 H       1  UNL1        0.0000
     52 H           1.1709   -1.3459    5.9478 H       1  UNL1        0.0000
     53 H           2.3666   -4.5375    3.2172 H       1  UNL1        0.0000
     54 H           3.0804   -4.4535    4.8714 H       1  UNL1        0.0000
     55 H           3.5046   -3.2121    3.6434 H       1  UNL1        0.0000
     56 H           0.2497   -4.8026    4.3488 H       1  UNL1        0.0000
     57 H           0.7499   -4.4001    6.0123 H       1  UNL1        0.0000
     58 H          -0.7805   -2.4053    5.9246 H       1  UNL1        0.0000
     59 H          -1.6729   -3.9348    5.7269 H       1  UNL1        0.0000
     60 H          -3.1122   -1.3798    3.2572 H       1  UNL1        0.0000
     61 H          -2.2471   -0.8865    4.7549 H       1  UNL1        0.0000
     62 H          -3.4373   -2.2413    4.8008 H       1  UNL1        0.0000
     63 H          -2.5612   -3.5544    2.1142 H       1  UNL1        0.0000
     64 H          -1.3317   -4.6719    2.7776 H       1  UNL1        0.0000
     65 H          -2.9006   -4.4510    3.6343 H       1  UNL1        0.0000
     66 H           4.2257   -0.4743    1.5221 H       1  UNL1        0.0000
     67 H           5.5491    0.7273   -0.2168 H       1  UNL1        0.0000
     68 EU         -0.5190    0.2394   -0.8804 Eu      1  UNL1        0.0000
@<TRIPOS>BOND
     1     1     2    2
     2     2     3   am
     3     3     4    1
     4     3     5    1
     5     5     6    1
     6     6     7    1
     7     2     8    1
     8     8     9   ar
     9     9    10   ar
    10     8    11   ar
    11    11    12   ar
    12    12    13   ar
    13    10    13   ar
    14    13    14   ar
    15    14    15   ar
    16    15    16   ar
    17    16    17   ar
    18    12    17   ar
    19    17    18   ar
    20    18    19   ar
    21    19    20    1
    22    20    21   ar
    23    21    22   ar
    24    22    23    1
    25    23    24    1
    26    23    25    1
    27    23    26    1
    28    26    27    1
    29    27    28    1
    30    28    29    1
    31    28    30    1
    32    22    31   ar
    33    28    31    1
    34    31    32   ar
    35    32    33   ar
    36    20    33   ar
    37    19    34   ar
    38    34    35   ar
    39    16    35   ar
    40     4    36    1
    41     4    37    1
    42     4    38    1
    43     5    39    1
    44     5    40    1
    45     6    41    1
    46     6    42    1
    47     7    43    1
    48     7    44    1
    49     7    45    1
    50     9    46    1
    51    10    47    1
    52    14    48    1
    53    15    49    1
    54    24    50    1
    55    24    51    1
    56    24    52    1
    57    25    53    1
    58    25    54    1
    59    25    55    1
    60    26    56    1
    61    26    57    1
    62    27    58    1
    63    27    59    1
    64    29    60    1
    65    29    61    1
    66    29    62    1
    67    30    63    1
    68    30    64    1
    69    30    65    1
    70    34    66    1
    71    35    67    1
    72    68     1    1
    73    68    33    1
    74    68    18    1
    75    68    11    1
@<TRIPOS>MOLECULE
*****
 68 75 0 0 0
SMALL
GASTEIGER

@<TRIPOS>ATOM
      1 O          -2.1505    0.7876   -2.3105 O.2     1  UNL1        0.0000
      2 C          -1.9086    1.3296   -3.3971 C.2     1  UNL1        0.0000
      3 N          -2.9721    1.4505   -4.2741 N.am    1  UNL1        0.0000
      4 C          -4.3256    1.2752   -3.7481 C.3     1  UNL1        0.0000
      5 C          -2.8260    1.5023   -5.7251 C.3     1  UNL1        0.0000
      6 C          -2.3346    0.1135   -6.1815 C.3     1  UNL1        0.0000
      7 C          -2.2496   -0.0357   -7.6921 C.3     1  UNL1        0.0000
      8 C          -0.4453    1.6921   -3.6536 C.ar    1  UNL1        0.0000
      9 C           0.1554    2.4138   -4.7231 C.ar    1  UNL1        0.0000
     10 C           1.5521    2.6539   -4.7206 C.ar    1  UNL1        0.0000
     11 N           0.3829    1.3028   -2.6652 N.ar    1  UNL1        0.0000
     12 C           1.7191    1.5005   -2.6359 C.ar    1  UNL1        0.0000
     13 C           2.3545    2.1838   -3.6673 C.ar    1  UNL1        0.0000
     14 C           3.7521    2.3756   -3.5935 C.ar    1  UNL1        0.0000
     15 C           4.4844    1.8680   -2.4923 C.ar    1  UNL1        0.0000
     16 C           3.8201    1.1761   -1.4580 C.ar    1  UNL1        0.0000
     17 C           2.4355    1.0136   -1.5511 C.ar    1  UNL1        0.0000
     18 N           1.7570    0.3736   -0.5815 N.ar    1  UNL1        0.0000
     19 C           2.3294   -0.1598    0.5139 C.ar    1  UNL1        0.0000
     20 C           1.4038   -0.8349    1.4475 C.ar    1  UNL1        0.0000
     21 N           1.8301   -1.4951    2.5477 N.ar    1  UNL1        0.0000
     22 C           0.9461   -2.1612    3.3490 C.ar    1  UNL1        0.0000
     23 C           1.4881   -2.9784    4.5146 C.3     1  UNL1        0.0000
     24 C           1.9887   -2.0043    5.6012 C.3     1  UNL1        0.0000
     25 C           2.6789   -3.8444    4.0437 C.3     1  UNL1        0.0000
     26 C           0.4070   -3.9514    5.0700 C.3     1  UNL1        0.0000
     27 C          -0.9370   -3.2544    5.2498 C.3     1  UNL1        0.0000
     28 C          -1.5117   -2.7637    3.8918 C.3     1  UNL1        0.0000
     29 C          -2.6431   -1.7600    4.1999 C.3     1  UNL1        0.0000
     30 C          -2.1037   -3.9344    3.0741 C.3     1  UNL1        0.0000
     31 C          -0.4377   -2.0914    3.0450 C.ar    1  UNL1        0.0000
     32 N          -0.8174   -1.4234    1.9249 N.ar    1  UNL1        0.0000
     33 N           0.0760   -0.8266    1.1448 N.ar    1  UNL1        0.0000
     34 C           3.7238   -0.0446    0.6667 C.ar    1  UNL1        0.0000
     35 C           4.4707    0.6347   -0.3269 C.ar    1  UNL1        0.0000
     36 H          -4.5462    2.0805   -3.0154 H       1  UNL1        0.0000
     37 H          -5.1047    1.3198   -4.5377 H       1  UNL1        0.0000
     38 H          -4.4208    0.2869   -3.2500 H       1  UNL1        0.0000
     39 H          -3.8106    1.6594   -6.2153 H       1  UNL1        0.0000
     40 H          -2.2345    2.3489   -6.0771 H       1  UNL1        0.0000
     41 H          -1.3437   -0.1180   -5.7369 H       1  UNL1        0.0000
     42 H          -3.0627   -0.6441   -5.8088 H       1  UNL1        0.0000
     43 H          -3.2368    0.1688   -8.1576 H       1  UNL1        0.0000
     44 H          -1.9600   -1.0825   -7.9327 H       1  UNL1        0.0000
     45 H          -1.4852    0.6535   -8.1027 H       1  UNL1        0.0000
     46 H          -0.3776    2.8274   -5.5472 H       1  UNL1        0.0000
     47 H           1.9997    3.2097   -5.5362 H       1  UNL1        0.0000
     48 H           4.2738    2.9093   -4.3788 H       1  UNL1        0.0000
     49 H           5.5567    2.0171   -2.4500 H       1  UNL1        0.0000
     50 H           2.7989   -1.3573    5.2009 H       1  UNL1        0.0000
     51 H           2.3922   -2.5654    6.4716 H       1  UNL1        0.0000
     52 H           1.1771   -1.3384    5.9575 H       1  UNL1        0.0000
     53 H           2.3644   -4.5372    3.2325 H       1  UNL1        0.0000
     54 H           3.0822   -4.4503    4.8844 H       1  UNL1        0.0000
     55 H           3.5052   -3.2126    3.6522 H       1  UNL1        0.0000
     56 H           0.2529   -4.7991    4.3693 H       1  UNL1        0.0000
     57 H           0.7537   -4.3913    6.0309 H       1  UNL1        0.0000
     58 H          -0.7785   -2.3971    5.9362 H       1  UNL1        0.0000
     59 H          -1.6699   -3.9287    5.7447 H       1  UNL1        0.0000
     60 H          -3.1117   -1.3853    3.2641 H       1  UNL1        0.0000
     61 H          -2.2477   -0.8846    4.7597 H       1  UNL1        0.0000
     62 H          -3.4370   -2.2405    4.8112 H       1  UNL1        0.0000
     63 H          -2.5578   -3.5626    2.1294 H       1  UNL1        0.0000
     64 H          -1.3275   -4.6766    2.7968 H       1  UNL1        0.0000
     65 H          -2.8970   -4.4546    3.6522 H       1  UNL1        0.0000
     66 H           4.2232   -0.4633    1.5311 H       1  UNL1        0.0000
     67 H           5.5435    0.7322   -0.2145 H       1  UNL1        0.0000
     68 EU         -0.5239    0.2214   -0.8756 Eu      1  UNL1        0.0000
@<TRIPOS>BOND
     1     1     2    2
     2     2     3   am
     3     3     4    1
     4     3     5    1
     5     5     6    1
     6     6     7    1
     7     2     8    1
     8     8     9   ar
     9     9    10   ar
    10     8    11   ar
    11    11    12   ar
    12    12    13   ar
    13    10    13   ar
    14    13    14   ar
    15    14    15   ar
    16    15    16   ar
    17    16    17   ar
    18    12    17   ar
    19    17    18   ar
    20    18    19   ar
    21    19    20    1
    22    20    21   ar
    23    21    22   ar
    24    22    23    1
    25    23    24    1
    26    23    25    1
    27    23    26    1
    28    26    27    1
    29    27    28    1
    30    28    29    1
    31    28    30    1
    32    22    31   ar
    33    28    31    1
    34    31    32   ar
    35    32    33   ar
    36    20    33   ar
    37    19    34   ar
    38    34    35   ar
    39    16    35   ar
    40     4    36    1
    41     4    37    1
    42     4    38    1
    43     5    39    1
    44     5    40    1
    45     6    41    1
    46     6    42    1
    47     7    43    1
    48     7    44    1
    49     7    45    1
    50     9    46    1
    51    10    47    1
    52    14    48    1
    53    15    49    1
    54    24    50    1
    55    24    51    1
    56    24    52    1
    57    25    53    1
    58    25    54    1
    59    25    55    1
    60    26    56    1
    61    26    57    1
    62    27    58    1
    63    27    59    1
    64    29    60    1
    65    29    61    1
    66    29    62    1
    67    30    63    1
    68    30    64    1
    69    30    65    1
    70    34    66    1
    71    35    67    1
    72    68     1    1
    73    68    33    1
    74    68    18    1
    75    68    11    1
@<TRIPOS>MOLECULE
*****
 68 75 0 0 0
SMALL
GASTEIGER

@<TRIPOS>ATOM
      1 O          -2.1575    0.7540   -2.3095 O.2     1  UNL1        0.0000
      2 C          -1.9195    1.2923   -3.3985 C.2     1  UNL1        0.0000
      3 N          -2.9862    1.4161   -4.2710 N.am    1  UNL1        0.0000
      4 C          -4.3375    1.2445   -3.7373 C.3     1  UNL1        0.0000
      5 C          -2.8477    1.5127   -5.7201 C.3     1  UNL1        0.0000
      6 C          -2.2844    0.1664   -6.2207 C.3     1  UNL1        0.0000
      7 C          -2.2218    0.0610   -7.7365 C.3     1  UNL1        0.0000
      8 C          -0.4563    1.6525   -3.6607 C.ar    1  UNL1        0.0000
      9 C           0.1430    2.3559   -4.7418 C.ar    1  UNL1        0.0000
     10 C           1.5390    2.5998   -4.7424 C.ar    1  UNL1        0.0000
     11 N           0.3735    1.2727   -2.6693 N.ar    1  UNL1        0.0000
     12 C           1.7084    1.4720   -2.6448 C.ar    1  UNL1        0.0000
     13 C           2.3427    2.1473   -3.6817 C.ar    1  UNL1        0.0000
     14 C           3.7399    2.3444   -3.6091 C.ar    1  UNL1        0.0000
     15 C           4.4733    1.8509   -2.5023 C.ar    1  UNL1        0.0000
     16 C           3.8110    1.1653   -1.4626 C.ar    1  UNL1        0.0000
     17 C           2.4280    0.9974   -1.5549 C.ar    1  UNL1        0.0000
     18 N           1.7519    0.3620   -0.5805 N.ar    1  UNL1        0.0000
     19 C           2.3246   -0.1663    0.5180 C.ar    1  UNL1        0.0000
     20 C           1.4019   -0.8391    1.4556 C.ar    1  UNL1        0.0000
     21 N           1.8311   -1.4972    2.5580 N.ar    1  UNL1        0.0000
     22 C           0.9510   -2.1619    3.3608 C.ar    1  UNL1        0.0000
     23 C           1.4919   -2.9754    4.5303 C.3     1  UNL1        0.0000
     24 C           1.9939   -1.9968    5.6118 C.3     1  UNL1        0.0000
     25 C           2.6821   -3.8422    4.0596 C.3     1  UNL1        0.0000
     26 C           0.4116   -3.9457    5.0901 C.3     1  UNL1        0.0000
     27 C          -0.9323   -3.2481    5.2673 C.3     1  UNL1        0.0000
     28 C          -1.5073   -2.7646    3.9066 C.3     1  UNL1        0.0000
     29 C          -2.6408   -1.7614    4.2111 C.3     1  UNL1        0.0000
     30 C          -2.0990   -3.9400    3.0950 C.3     1  UNL1        0.0000
     31 C          -0.4345   -2.0963    3.0567 C.ar    1  UNL1        0.0000
     32 N          -0.8149   -1.4322    1.9336 N.ar    1  UNL1        0.0000
     33 N           0.0755   -0.8377    1.1497 N.ar    1  UNL1        0.0000
     34 C           3.7200   -0.0414    0.6707 C.ar    1  UNL1        0.0000
     35 C           4.4637    0.6354   -0.3274 C.ar    1  UNL1        0.0000
     36 H          -4.5476    2.0463   -2.9972 H       1  UNL1        0.0000
     37 H          -5.1224    1.3027   -4.5201 H       1  UNL1        0.0000
     38 H          -4.4357    0.2540   -3.2453 H       1  UNL1        0.0000
     39 H          -3.8413    1.6297   -6.2036 H       1  UNL1        0.0000
     40 H          -2.3030    2.4044   -6.0448 H       1  UNL1        0.0000
     41 H          -1.2734   -0.0184   -5.8013 H       1  UNL1        0.0000
     42 H          -2.9589   -0.6426   -5.8557 H       1  UNL1        0.0000
     43 H          -3.2302    0.2131   -8.1762 H       1  UNL1        0.0000
     44 H          -1.8720   -0.9586   -8.0112 H       1  UNL1        0.0000
     45 H          -1.5128    0.8083   -8.1451 H       1  UNL1        0.0000
     46 H          -0.3917    2.7486   -5.5750 H       1  UNL1        0.0000
     47 H           1.9859    3.1424   -5.5668 H       1  UNL1        0.0000
     48 H           4.2595    2.8711   -4.3998 H       1  UNL1        0.0000
     49 H           5.5451    2.0042   -2.4607 H       1  UNL1        0.0000
     50 H           2.8035   -1.3503    5.2084 H       1  UNL1        0.0000
     51 H           2.3990   -2.5543    6.4833 H       1  UNL1        0.0000
     52 H           1.1829   -1.3294    5.9675 H       1  UNL1        0.0000
     53 H           2.3656   -4.5373    3.2514 H       1  UNL1        0.0000
     54 H           3.0865   -4.4441    4.9019 H       1  UNL1        0.0000
     55 H           3.5072   -3.2108    3.6642 H       1  UNL1        0.0000
     56 H           0.2576   -4.7964    4.3934 H       1  UNL1        0.0000
     57 H           0.7593   -4.3798    6.0526 H       1  UNL1        0.0000
     58 H          -0.7743   -2.3873    5.9492 H       1  UNL1        0.0000
     59 H          -1.6645   -3.9208    5.7657 H       1  UNL1        0.0000
     60 H          -3.1111   -1.3916    3.2742 H       1  UNL1        0.0000
     61 H          -2.2469   -0.8830    4.7670 H       1  UNL1        0.0000
     62 H          -3.4339   -2.2403    4.8253 H       1  UNL1        0.0000
     63 H          -2.5542   -3.5733    2.1489 H       1  UNL1        0.0000
     64 H          -1.3220   -4.6824    2.8208 H       1  UNL1        0.0000
     65 H          -2.8915   -4.4587    3.6759 H       1  UNL1        0.0000
     66 H           4.2203   -0.4533    1.5377 H       1  UNL1        0.0000
     67 H           5.5362    0.7375   -0.2147 H       1  UNL1        0.0000
     68 EU         -0.5292    0.1997   -0.8725 Eu      1  UNL1        0.0000
@<TRIPOS>BOND
     1     1     2    2
     2     2     3   am
     3     3     4    1
     4     3     5    1
     5     5     6    1
     6     6     7    1
     7     2     8    1
     8     8     9   ar
     9     9    10   ar
    10     8    11   ar
    11    11    12   ar
    12    12    13   ar
    13    10    13   ar
    14    13    14   ar
    15    14    15   ar
    16    15    16   ar
    17    16    17   ar
    18    12    17   ar
    19    17    18   ar
    20    18    19   ar
    21    19    20    1
    22    20    21   ar
    23    21    22   ar
    24    22    23    1
    25    23    24    1
    26    23    25    1
    27    23    26    1
    28    26    27    1
    29    27    28    1
    30    28    29    1
    31    28    30    1
    32    22    31   ar
    33    28    31    1
    34    31    32   ar
    35    32    33   ar
    36    20    33   ar
    37    19    34   ar
    38    34    35   ar
    39    16    35   ar
    40     4    36    1
    41     4    37    1
    42     4    38    1
    43     5    39    1
    44     5    40    1
    45     6    41    1
    46     6    42    1
    47     7    43    1
    48     7    44    1
    49     7    45    1
    50     9    46    1
    51    10    47    1
    52    14    48    1
    53    15    49    1
    54    24    50    1
    55    24    51    1
    56    24    52    1
    57    25    53    1
    58    25    54    1
    59    25    55    1
    60    26    56    1
    61    26    57    1
    62    27    58    1
    63    27    59    1
    64    29    60    1
    65    29    61    1
    66    29    62    1
    67    30    63    1
    68    30    64    1
    69    30    65    1
    70    34    66    1
    71    35    67    1
    72    68     1    1
    73    68    33    1
    74    68    18    1
    75    68    11    1
@<TRIPOS>MOLECULE
*****
 68 75 0 0 0
SMALL
GASTEIGER

@<TRIPOS>ATOM
      1 O          -2.1634    0.7284   -2.3107 O.2     1  UNL1        0.0000
      2 C          -1.9266    1.2646   -3.4015 C.2     1  UNL1        0.0000
      3 N          -2.9951    1.3932   -4.2708 N.am    1  UNL1        0.0000
      4 C          -4.3442    1.2128   -3.7348 C.3     1  UNL1        0.0000
      5 C          -2.8606    1.5229   -5.7177 C.3     1  UNL1        0.0000
      6 C          -2.2540    0.2082   -6.2515 C.3     1  UNL1        0.0000
      7 C          -2.2025    0.1395   -7.7699 C.3     1  UNL1        0.0000
      8 C          -0.4639    1.6227   -3.6667 C.ar    1  UNL1        0.0000
      9 C           0.1353    2.3143   -4.7564 C.ar    1  UNL1        0.0000
     10 C           1.5310    2.5588   -4.7592 C.ar    1  UNL1        0.0000
     11 N           0.3662    1.2523   -2.6726 N.ar    1  UNL1        0.0000
     12 C           1.7006    1.4545   -2.6479 C.ar    1  UNL1        0.0000
     13 C           2.3344    2.1188   -3.6924 C.ar    1  UNL1        0.0000
     14 C           3.7308    2.3165   -3.6231 C.ar    1  UNL1        0.0000
     15 C           4.4649    1.8330   -2.5121 C.ar    1  UNL1        0.0000
     16 C           3.8039    1.1541   -1.4668 C.ar    1  UNL1        0.0000
     17 C           2.4200    0.9843   -1.5568 C.ar    1  UNL1        0.0000
     18 N           1.7456    0.3520   -0.5800 N.ar    1  UNL1        0.0000
     19 C           2.3214   -0.1674    0.5210 C.ar    1  UNL1        0.0000
     20 C           1.4010   -0.8413    1.4608 C.ar    1  UNL1        0.0000
     21 N           1.8311   -1.4952    2.5665 N.ar    1  UNL1        0.0000
     22 C           0.9519   -2.1596    3.3707 C.ar    1  UNL1        0.0000
     23 C           1.4955   -2.9695    4.5410 C.3     1  UNL1        0.0000
     24 C           1.9984   -1.9889    5.6205 C.3     1  UNL1        0.0000
     25 C           2.6841   -3.8379    4.0711 C.3     1  UNL1        0.0000
     26 C           0.4160   -3.9394    5.1054 C.3     1  UNL1        0.0000
     27 C          -0.9281   -3.2422    5.2822 C.3     1  UNL1        0.0000
     28 C          -1.5047   -2.7648    3.9205 C.3     1  UNL1        0.0000
     29 C          -2.6398   -1.7626    4.2225 C.3     1  UNL1        0.0000
     30 C          -2.0947   -3.9430    3.1126 C.3     1  UNL1        0.0000
     31 C          -0.4331   -2.0979    3.0681 C.ar    1  UNL1        0.0000
     32 N          -0.8160   -1.4384    1.9428 N.ar    1  UNL1        0.0000
     33 N           0.0719   -0.8450    1.1566 N.ar    1  UNL1        0.0000
     34 C           3.7152   -0.0403    0.6728 C.ar    1  UNL1        0.0000
     35 C           4.4579    0.6318   -0.3286 C.ar    1  UNL1        0.0000
     36 H          -4.5509    2.0054   -2.9833 H       1  UNL1        0.0000
     37 H          -5.1326    1.2830   -4.5128 H       1  UNL1        0.0000
     38 H          -4.4406    0.2166   -3.2541 H       1  UNL1        0.0000
     39 H          -3.8580    1.6199   -6.1975 H       1  UNL1        0.0000
     40 H          -2.3434    2.4414   -6.0178 H       1  UNL1        0.0000
     41 H          -1.2330    0.0506   -5.8467 H       1  UNL1        0.0000
     42 H          -2.8939   -0.6332   -5.8987 H       1  UNL1        0.0000
     43 H          -3.2216    0.2571   -8.1955 H       1  UNL1        0.0000
     44 H          -1.8119   -0.8574   -8.0712 H       1  UNL1        0.0000
     45 H          -1.5318    0.9262   -8.1690 H       1  UNL1        0.0000
     46 H          -0.4004    2.6929   -5.5955 H       1  UNL1        0.0000
     47 H           1.9781    3.0914   -5.5906 H       1  UNL1        0.0000
     48 H           4.2502    2.8362   -4.4185 H       1  UNL1        0.0000
     49 H           5.5363    1.9871   -2.4724 H       1  UNL1        0.0000
     50 H           2.8072   -1.3434    5.2147 H       1  UNL1        0.0000
     51 H           2.4045   -2.5450    6.4927 H       1  UNL1        0.0000
     52 H           1.1874   -1.3215    5.9760 H       1  UNL1        0.0000
     53 H           2.3659   -4.5348    3.2649 H       1  UNL1        0.0000
     54 H           3.0895   -4.4387    4.9139 H       1  UNL1        0.0000
     55 H           3.5087   -3.2081    3.6728 H       1  UNL1        0.0000
     56 H           0.2616   -4.7924    4.4127 H       1  UNL1        0.0000
     57 H           0.7649   -4.3703    6.0698 H       1  UNL1        0.0000
     58 H          -0.7704   -2.3789    5.9612 H       1  UNL1        0.0000
     59 H          -1.6595   -3.9138    5.7833 H       1  UNL1        0.0000
     60 H          -3.1116   -1.3972    3.2846 H       1  UNL1        0.0000
     61 H          -2.2484   -0.8814    4.7756 H       1  UNL1        0.0000
     62 H          -3.4319   -2.2416    4.8382 H       1  UNL1        0.0000
     63 H          -2.5508   -3.5794    2.1658 H       1  UNL1        0.0000
     64 H          -1.3169   -4.6850    2.8396 H       1  UNL1        0.0000
     65 H          -2.8861   -4.4611    3.6951 H       1  UNL1        0.0000
     66 H           4.2169   -0.4457    1.5421 H       1  UNL1        0.0000
     67 H           5.5301    0.7376   -0.2170 H       1  UNL1        0.0000
     68 EU         -0.5346    0.1836   -0.8714 Eu      1  UNL1        0.0000
@<TRIPOS>BOND
     1     1     2    2
     2     2     3   am
     3     3     4    1
     4     3     5    1
     5     5     6    1
     6     6     7    1
     7     2     8    1
     8     8     9   ar
     9     9    10   ar
    10     8    11   ar
    11    11    12   ar
    12    12    13   ar
    13    10    13   ar
    14    13    14   ar
    15    14    15   ar
    16    15    16   ar
    17    16    17   ar
    18    12    17   ar
    19    17    18   ar
    20    18    19   ar
    21    19    20    1
    22    20    21   ar
    23    21    22   ar
    24    22    23    1
    25    23    24    1
    26    23    25    1
    27    23    26    1
    28    26    27    1
    29    27    28    1
    30    28    29    1
    31    28    30    1
    32    22    31   ar
    33    28    31    1
    34    31    32   ar
    35    32    33   ar
    36    20    33   ar
    37    19    34   ar
    38    34    35   ar
    39    16    35   ar
    40     4    36    1
    41     4    37    1
    42     4    38    1
    43     5    39    1
    44     5    40    1
    45     6    41    1
    46     6    42    1
    47     7    43    1
    48     7    44    1
    49     7    45    1
    50     9    46    1
    51    10    47    1
    52    14    48    1
    53    15    49    1
    54    24    50    1
    55    24    51    1
    56    24    52    1
    57    25    53    1
    58    25    54    1
    59    25    55    1
    60    26    56    1
    61    26    57    1
    62    27    58    1
    63    27    59    1
    64    29    60    1
    65    29    61    1
    66    29    62    1
    67    30    63    1
    68    30    64    1
    69    30    65    1
    70    34    66    1
    71    35    67    1
    72    68     1    1
    73    68    33    1
    74    68    18    1
    75    68    11    1
@<TRIPOS>MOLECULE
*****
 68 75 0 0 0
SMALL
GASTEIGER

@<TRIPOS>ATOM
      1 O          -2.1667    0.7022   -2.3125 O.2     1  UNL1        0.0000
      2 C          -1.9315    1.2374   -3.4044 C.2     1  UNL1        0.0000
      3 N          -3.0010    1.3688   -4.2717 N.am    1  UNL1        0.0000
      4 C          -4.3487    1.1750   -3.7354 C.3     1  UNL1        0.0000
      5 C          -2.8708    1.5341   -5.7150 C.3     1  UNL1        0.0000
      6 C          -2.2311    0.2496   -6.2833 C.3     1  UNL1        0.0000
      7 C          -2.1858    0.2227   -7.8033 C.3     1  UNL1        0.0000
      8 C          -0.4700    1.5960   -3.6722 C.ar    1  UNL1        0.0000
      9 C           0.1275    2.2787   -4.7667 C.ar    1  UNL1        0.0000
     10 C           1.5225    2.5224   -4.7726 C.ar    1  UNL1        0.0000
     11 N           0.3602    1.2295   -2.6764 N.ar    1  UNL1        0.0000
     12 C           1.6953    1.4307   -2.6545 C.ar    1  UNL1        0.0000
     13 C           2.3269    2.0901   -3.7041 C.ar    1  UNL1        0.0000
     14 C           3.7233    2.2897   -3.6360 C.ar    1  UNL1        0.0000
     15 C           4.4582    1.8143   -2.5223 C.ar    1  UNL1        0.0000
     16 C           3.7972    1.1405   -1.4734 C.ar    1  UNL1        0.0000
     17 C           2.4148    0.9694   -1.5622 C.ar    1  UNL1        0.0000
     18 N           1.7416    0.3415   -0.5801 N.ar    1  UNL1        0.0000
     19 C           2.3183   -0.1713    0.5226 C.ar    1  UNL1        0.0000
     20 C           1.3988   -0.8427    1.4652 C.ar    1  UNL1        0.0000
     21 N           1.8310   -1.4942    2.5720 N.ar    1  UNL1        0.0000
     22 C           0.9536   -2.1558    3.3808 C.ar    1  UNL1        0.0000
     23 C           1.4983   -2.9632    4.5529 C.3     1  UNL1        0.0000
     24 C           2.0029   -1.9800    5.6298 C.3     1  UNL1        0.0000
     25 C           2.6867   -3.8325    4.0835 C.3     1  UNL1        0.0000
     26 C           0.4203   -3.9318    5.1221 C.3     1  UNL1        0.0000
     27 C          -0.9242   -3.2366    5.2965 C.3     1  UNL1        0.0000
     28 C          -1.5028   -2.7637    3.9335 C.3     1  UNL1        0.0000
     29 C          -2.6398   -1.7625    4.2322 C.3     1  UNL1        0.0000
     30 C          -2.0906   -3.9461    3.1302 C.3     1  UNL1        0.0000
     31 C          -0.4320   -2.0976    3.0787 C.ar    1  UNL1        0.0000
     32 N          -0.8169   -1.4427    1.9518 N.ar    1  UNL1        0.0000
     33 N           0.0714   -0.8491    1.1626 N.ar    1  UNL1        0.0000
     34 C           3.7123   -0.0418    0.6735 C.ar    1  UNL1        0.0000
     35 C           4.4532    0.6267   -0.3318 C.ar    1  UNL1        0.0000
     36 H          -4.5577    1.9539   -2.9700 H       1  UNL1        0.0000
     37 H          -5.1401    1.2550   -4.5097 H       1  UNL1        0.0000
     38 H          -4.4402    0.1707   -3.2707 H       1  UNL1        0.0000
     39 H          -3.8711    1.6179   -6.1919 H       1  UNL1        0.0000
     40 H          -2.3760    2.4744   -5.9893 H       1  UNL1        0.0000
     41 H          -1.2038    0.1103   -5.8894 H       1  UNL1        0.0000
     42 H          -2.8430   -0.6191   -5.9488 H       1  UNL1        0.0000
     43 H          -3.2113    0.3141   -8.2200 H       1  UNL1        0.0000
     44 H          -1.7608   -0.7506   -8.1333 H       1  UNL1        0.0000
     45 H          -1.5472    1.0440   -8.1854 H       1  UNL1        0.0000
     46 H          -0.4099    2.6475   -5.6099 H       1  UNL1        0.0000
     47 H           1.9684    3.0482   -5.6085 H       1  UNL1        0.0000
     48 H           4.2417    2.8050   -4.4352 H       1  UNL1        0.0000
     49 H           5.5294    1.9700   -2.4838 H       1  UNL1        0.0000
     50 H           2.8109   -1.3352    5.2207 H       1  UNL1        0.0000
     51 H           2.4107   -2.5339    6.5020 H       1  UNL1        0.0000
     52 H           1.1922   -1.3121    5.9846 H       1  UNL1        0.0000
     53 H           2.3676   -4.5315    3.2793 H       1  UNL1        0.0000
     54 H           3.0937   -4.4310    4.9269 H       1  UNL1        0.0000
     55 H           3.5106   -3.2035    3.6821 H       1  UNL1        0.0000
     56 H           0.2662   -4.7877    4.4315 H       1  UNL1        0.0000
     57 H           0.7704   -4.3595    6.0867 H       1  UNL1        0.0000
     58 H          -0.7671   -2.3696    5.9720 H       1  UNL1        0.0000
     59 H          -1.6545   -3.9063    5.8008 H       1  UNL1        0.0000
     60 H          -3.1121   -1.4008    3.2931 H       1  UNL1        0.0000
     61 H          -2.2492   -0.8792    4.7823 H       1  UNL1        0.0000
     62 H          -3.4307   -2.2410    4.8497 H       1  UNL1        0.0000
     63 H          -2.5481   -3.5873    2.1818 H       1  UNL1        0.0000
     64 H          -1.3114   -4.6876    2.8594 H       1  UNL1        0.0000
     65 H          -2.8806   -4.4640    3.7149 H       1  UNL1        0.0000
     66 H           4.2144   -0.4420    1.5444 H       1  UNL1        0.0000
     67 H           5.5252    0.7341   -0.2211 H       1  UNL1        0.0000
     68 EU         -0.5383    0.1676   -0.8701 Eu      1  UNL1        0.0000
@<TRIPOS>BOND
     1     1     2    2
     2     2     3   am
     3     3     4    1
     4     3     5    1
     5     5     6    1
     6     6     7    1
     7     2     8    1
     8     8     9   ar
     9     9    10   ar
    10     8    11   ar
    11    11    12   ar
    12    12    13   ar
    13    10    13   ar
    14    13    14   ar
    15    14    15   ar
    16    15    16   ar
    17    16    17   ar
    18    12    17   ar
    19    17    18   ar
    20    18    19   ar
    21    19    20    1
    22    20    21   ar
    23    21    22   ar
    24    22    23    1
    25    23    24    1
    26    23    25    1
    27    23    26    1
    28    26    27    1
    29    27    28    1
    30    28    29    1
    31    28    30    1
    32    22    31   ar
    33    28    31    1
    34    31    32   ar
    35    32    33   ar
    36    20    33   ar
    37    19    34   ar
    38    34    35   ar
    39    16    35   ar
    40     4    36    1
    41     4    37    1
    42     4    38    1
    43     5    39    1
    44     5    40    1
    45     6    41    1
    46     6    42    1
    47     7    43    1
    48     7    44    1
    49     7    45    1
    50     9    46    1
    51    10    47    1
    52    14    48    1
    53    15    49    1
    54    24    50    1
    55    24    51    1
    56    24    52    1
    57    25    53    1
    58    25    54    1
    59    25    55    1
    60    26    56    1
    61    26    57    1
    62    27    58    1
    63    27    59    1
    64    29    60    1
    65    29    61    1
    66    29    62    1
    67    30    63    1
    68    30    64    1
    69    30    65    1
    70    34    66    1
    71    35    67    1
    72    68     1    1
    73    68    33    1
    74    68    18    1
    75    68    11    1
@<TRIPOS>MOLECULE
*****
 68 75 0 0 0
SMALL
GASTEIGER

@<TRIPOS>ATOM
      1 O          -2.1706    0.6800   -2.3155 O.2     1  UNL1        0.0000
      2 C          -1.9363    1.2145   -3.4081 C.2     1  UNL1        0.0000
      3 N          -3.0073    1.3489   -4.2750 N.am    1  UNL1        0.0000
      4 C          -4.3524    1.1383   -3.7394 C.3     1  UNL1        0.0000
      5 C          -2.8785    1.5438   -5.7142 C.3     1  UNL1        0.0000
      6 C          -2.2169    0.2842   -6.3131 C.3     1  UNL1        0.0000
      7 C          -2.1735    0.2975   -7.8336 C.3     1  UNL1        0.0000
      8 C          -0.4755    1.5748   -3.6755 C.ar    1  UNL1        0.0000
      9 C           0.1223    2.2518   -4.7747 C.ar    1  UNL1        0.0000
     10 C           1.5177    2.4949   -4.7824 C.ar    1  UNL1        0.0000
     11 N           0.3553    1.2108   -2.6798 N.ar    1  UNL1        0.0000
     12 C           1.6904    1.4136   -2.6594 C.ar    1  UNL1        0.0000
     13 C           2.3220    2.0678   -3.7119 C.ar    1  UNL1        0.0000
     14 C           3.7180    2.2675   -3.6455 C.ar    1  UNL1        0.0000
     15 C           4.4533    1.7976   -2.5300 C.ar    1  UNL1        0.0000
     16 C           3.7941    1.1294   -1.4771 C.ar    1  UNL1        0.0000
     17 C           2.4107    0.9565   -1.5643 C.ar    1  UNL1        0.0000
     18 N           1.7377    0.3313   -0.5809 N.ar    1  UNL1        0.0000
     19 C           2.3151   -0.1770    0.5240 C.ar    1  UNL1        0.0000
     20 C           1.3970   -0.8477    1.4690 C.ar    1  UNL1        0.0000
     21 N           1.8292   -1.4910    2.5795 N.ar    1  UNL1        0.0000
     22 C           0.9530   -2.1518    3.3900 C.ar    1  UNL1        0.0000
     23 C           1.5013   -2.9556    4.5630 C.3     1  UNL1        0.0000
     24 C           2.0073   -1.9695    5.6371 C.3     1  UNL1        0.0000
     25 C           2.6900   -3.8256    4.0953 C.3     1  UNL1        0.0000
     26 C           0.4248   -3.9240    5.1367 C.3     1  UNL1        0.0000
     27 C          -0.9207   -3.2286    5.3098 C.3     1  UNL1        0.0000
     28 C          -1.5004   -2.7623    3.9455 C.3     1  UNL1        0.0000
     29 C          -2.6390   -1.7621    4.2412 C.3     1  UNL1        0.0000
     30 C          -2.0869   -3.9486    3.1461 C.3     1  UNL1        0.0000
     31 C          -0.4321   -2.0983    3.0873 C.ar    1  UNL1        0.0000
     32 N          -0.8182   -1.4491    1.9565 N.ar    1  UNL1        0.0000
     33 N           0.0693   -0.8573    1.1664 N.ar    1  UNL1        0.0000
     34 C           3.7087   -0.0445    0.6741 C.ar    1  UNL1        0.0000
     35 C           4.4493    0.6199   -0.3342 C.ar    1  UNL1        0.0000
     36 H          -4.5642    1.9041   -2.9619 H       1  UNL1        0.0000
     37 H          -5.1449    1.2262   -4.5114 H       1  UNL1        0.0000
     38 H          -4.4372    0.1262   -3.2901 H       1  UNL1        0.0000
     39 H          -3.8796    1.6225   -6.1891 H       1  UNL1        0.0000
     40 H          -2.3975    2.4993   -5.9650 H       1  UNL1        0.0000
     41 H          -1.1868    0.1528   -5.9257 H       1  UNL1        0.0000
     42 H          -2.8112   -0.6039   -5.9992 H       1  UNL1        0.0000
     43 H          -3.2017    0.3751   -8.2461 H       1  UNL1        0.0000
     44 H          -1.7254   -0.6560   -8.1894 H       1  UNL1        0.0000
     45 H          -1.5560    1.1441   -8.1953 H       1  UNL1        0.0000
     46 H          -0.4150    2.6137   -5.6212 H       1  UNL1        0.0000
     47 H           1.9634    3.0149   -5.6218 H       1  UNL1        0.0000
     48 H           4.2358    2.7785   -4.4477 H       1  UNL1        0.0000
     49 H           5.5243    1.9534   -2.4930 H       1  UNL1        0.0000
     50 H           2.8141   -1.3266    5.2250 H       1  UNL1        0.0000
     51 H           2.4160   -2.5222    6.5096 H       1  UNL1        0.0000
     52 H           1.1963   -1.3024    5.9909 H       1  UNL1        0.0000
     53 H           2.3700   -4.5288    3.2931 H       1  UNL1        0.0000
     54 H           3.0977   -4.4231    4.9395 H       1  UNL1        0.0000
     55 H           3.5129   -3.1990    3.6908 H       1  UNL1        0.0000
     56 H           0.2706   -4.7829    4.4492 H       1  UNL1        0.0000
     57 H           0.7757   -4.3483    6.1022 H       1  UNL1        0.0000
     58 H          -0.7635   -2.3598    5.9814 H       1  UNL1        0.0000
     59 H          -1.6497   -3.8980    5.8169 H       1  UNL1        0.0000
     60 H          -3.1123   -1.4041    3.3011 H       1  UNL1        0.0000
     61 H          -2.2495   -0.8763    4.7881 H       1  UNL1        0.0000
     62 H          -3.4288   -2.2396    4.8605 H       1  UNL1        0.0000
     63 H          -2.5456   -3.5938    2.1970 H       1  UNL1        0.0000
     64 H          -1.3066   -4.6895    2.8775 H       1  UNL1        0.0000
     65 H          -2.8756   -4.4659    3.7333 H       1  UNL1        0.0000
     66 H           4.2123   -0.4411    1.5463 H       1  UNL1        0.0000
     67 H           5.5211    0.7290   -0.2246 H       1  UNL1        0.0000
     68 EU         -0.5413    0.1520   -0.8706 Eu      1  UNL1        0.0000
@<TRIPOS>BOND
     1     1     2    2
     2     2     3   am
     3     3     4    1
     4     3     5    1
     5     5     6    1
     6     6     7    1
     7     2     8    1
     8     8     9   ar
     9     9    10   ar
    10     8    11   ar
    11    11    12   ar
    12    12    13   ar
    13    10    13   ar
    14    13    14   ar
    15    14    15   ar
    16    15    16   ar
    17    16    17   ar
    18    12    17   ar
    19    17    18   ar
    20    18    19   ar
    21    19    20    1
    22    20    21   ar
    23    21    22   ar
    24    22    23    1
    25    23    24    1
    26    23    25    1
    27    23    26    1
    28    26    27    1
    29    27    28    1
    30    28    29    1
    31    28    30    1
    32    22    31   ar
    33    28    31    1
    34    31    32   ar
    35    32    33   ar
    36    20    33   ar
    37    19    34   ar
    38    34    35   ar
    39    16    35   ar
    40     4    36    1
    41     4    37    1
    42     4    38    1
    43     5    39    1
    44     5    40    1
    45     6    41    1
    46     6    42    1
    47     7    43    1
    48     7    44    1
    49     7    45    1
    50     9    46    1
    51    10    47    1
    52    14    48    1
    53    15    49    1
    54    24    50    1
    55    24    51    1
    56    24    52    1
    57    25    53    1
    58    25    54    1
    59    25    55    1
    60    26    56    1
    61    26    57    1
    62    27    58    1
    63    27    59    1
    64    29    60    1
    65    29    61    1
    66    29    62    1
    67    30    63    1
    68    30    64    1
    69    30    65    1
    70    34    66    1
    71    35    67    1
    72    68     1    1
    73    68    33    1
    74    68    18    1
    75    68    11    1
@<TRIPOS>MOLECULE
*****
 68 75 0 0 0
SMALL
GASTEIGER

@<TRIPOS>ATOM
      1 O          -2.1747    0.6583   -2.3197 O.2     1  UNL1        0.0000
      2 C          -1.9407    1.1927   -3.4126 C.2     1  UNL1        0.0000
      3 N          -3.0122    1.3285   -4.2779 N.am    1  UNL1        0.0000
      4 C          -4.3566    1.1038   -3.7458 C.3     1  UNL1        0.0000
      5 C          -2.8857    1.5525   -5.7139 C.3     1  UNL1        0.0000
      6 C          -2.2094    0.3142   -6.3411 C.3     1  UNL1        0.0000
      7 C          -2.1644    0.3677   -7.8606 C.3     1  UNL1        0.0000
      8 C          -0.4802    1.5551   -3.6799 C.ar    1  UNL1        0.0000
      9 C           0.1177    2.2288   -4.7812 C.ar    1  UNL1        0.0000
     10 C           1.5127    2.4718   -4.7902 C.ar    1  UNL1        0.0000
     11 N           0.3500    1.1931   -2.6834 N.ar    1  UNL1        0.0000
     12 C           1.6859    1.3970   -2.6636 C.ar    1  UNL1        0.0000
     13 C           2.3165    2.0476   -3.7185 C.ar    1  UNL1        0.0000
     14 C           3.7130    2.2466   -3.6537 C.ar    1  UNL1        0.0000
     15 C           4.4490    1.7813   -2.5373 C.ar    1  UNL1        0.0000
     16 C           3.7898    1.1168   -1.4819 C.ar    1  UNL1        0.0000
     17 C           2.4058    0.9429   -1.5677 C.ar    1  UNL1        0.0000
     18 N           1.7346    0.3207   -0.5820 N.ar    1  UNL1        0.0000
     19 C           2.3112   -0.1837    0.5245 C.ar    1  UNL1        0.0000
     20 C           1.3941   -0.8515    1.4710 C.ar    1  UNL1        0.0000
     21 N           1.8287   -1.4927    2.5833 N.ar    1  UNL1        0.0000
     22 C           0.9552   -2.1529    3.3955 C.ar    1  UNL1        0.0000
     23 C           1.5036   -2.9512    4.5721 C.3     1  UNL1        0.0000
     24 C           2.0091   -1.9609    5.6417 C.3     1  UNL1        0.0000
     25 C           2.6922   -3.8217    4.1056 C.3     1  UNL1        0.0000
     26 C           0.4284   -3.9179    5.1498 C.3     1  UNL1        0.0000
     27 C          -0.9176   -3.2232    5.3211 C.3     1  UNL1        0.0000
     28 C          -1.4987   -2.7625    3.9553 C.3     1  UNL1        0.0000
     29 C          -2.6383   -1.7630    4.2488 C.3     1  UNL1        0.0000
     30 C          -2.0845   -3.9526    3.1611 C.3     1  UNL1        0.0000
     31 C          -0.4319   -2.1000    3.0942 C.ar    1  UNL1        0.0000
     32 N          -0.8191   -1.4558    1.9608 N.ar    1  UNL1        0.0000
     33 N           0.0668   -0.8651    1.1683 N.ar    1  UNL1        0.0000
     34 C           3.7066   -0.0494    0.6738 C.ar    1  UNL1        0.0000
     35 C           4.4455    0.6117   -0.3372 C.ar    1  UNL1        0.0000
     36 H          -4.5721    1.8569   -2.9569 H       1  UNL1        0.0000
     37 H          -5.1497    1.1982   -4.5160 H       1  UNL1        0.0000
     38 H          -4.4344    0.0851   -3.3109 H       1  UNL1        0.0000
     39 H          -3.8875    1.6299   -6.1878 H       1  UNL1        0.0000
     40 H          -2.4140    2.5189   -5.9429 H       1  UNL1        0.0000
     41 H          -1.1783    0.1840   -5.9569 H       1  UNL1        0.0000
     42 H          -2.7928   -0.5882   -6.0491 H       1  UNL1        0.0000
     43 H          -3.1933    0.4400   -8.2722 H       1  UNL1        0.0000
     44 H          -1.7004   -0.5684   -8.2410 H       1  UNL1        0.0000
     45 H          -1.5605    1.2336   -8.1993 H       1  UNL1        0.0000
     46 H          -0.4201    2.5868   -5.6294 H       1  UNL1        0.0000
     47 H           1.9582    2.9881   -5.6322 H       1  UNL1        0.0000
     48 H           4.2311    2.7546   -4.4585 H       1  UNL1        0.0000
     49 H           5.5201    1.9363   -2.5013 H       1  UNL1        0.0000
     50 H           2.8154   -1.3175    5.2278 H       1  UNL1        0.0000
     51 H           2.4200   -2.5094    6.5165 H       1  UNL1        0.0000
     52 H           1.1984   -1.2923    5.9956 H       1  UNL1        0.0000
     53 H           2.3723   -4.5259    3.3065 H       1  UNL1        0.0000
     54 H           3.1016   -4.4146    4.9519 H       1  UNL1        0.0000
     55 H           3.5143   -3.1939    3.6990 H       1  UNL1        0.0000
     56 H           0.2750   -4.7793    4.4662 H       1  UNL1        0.0000
     57 H           0.7807   -4.3378    6.1172 H       1  UNL1        0.0000
     58 H          -0.7608   -2.3517    5.9896 H       1  UNL1        0.0000
     59 H          -1.6454   -3.8915    5.8319 H       1  UNL1        0.0000
     60 H          -3.1124   -1.4079    3.3081 H       1  UNL1        0.0000
     61 H          -2.2498   -0.8756    4.7939 H       1  UNL1        0.0000
     62 H          -3.4275   -2.2398    4.8699 H       1  UNL1        0.0000
     63 H          -2.5446   -3.6017    2.2114 H       1  UNL1        0.0000
     64 H          -1.3034   -4.6934    2.8945 H       1  UNL1        0.0000
     65 H          -2.8718   -4.4688    3.7512 H       1  UNL1        0.0000
     66 H           4.2097   -0.4435    1.5472 H       1  UNL1        0.0000
     67 H           5.5178    0.7214   -0.2277 H       1  UNL1        0.0000
     68 EU         -0.5455    0.1380   -0.8719 Eu      1  UNL1        0.0000
@<TRIPOS>BOND
     1     1     2    2
     2     2     3   am
     3     3     4    1
     4     3     5    1
     5     5     6    1
     6     6     7    1
     7     2     8    1
     8     8     9   ar
     9     9    10   ar
    10     8    11   ar
    11    11    12   ar
    12    12    13   ar
    13    10    13   ar
    14    13    14   ar
    15    14    15   ar
    16    15    16   ar
    17    16    17   ar
    18    12    17   ar
    19    17    18   ar
    20    18    19   ar
    21    19    20    1
    22    20    21   ar
    23    21    22   ar
    24    22    23    1
    25    23    24    1
    26    23    25    1
    27    23    26    1
    28    26    27    1
    29    27    28    1
    30    28    29    1
    31    28    30    1
    32    22    31   ar
    33    28    31    1
    34    31    32   ar
    35    32    33   ar
    36    20    33   ar
    37    19    34   ar
    38    34    35   ar
    39    16    35   ar
    40     4    36    1
    41     4    37    1
    42     4    38    1
    43     5    39    1
    44     5    40    1
    45     6    41    1
    46     6    42    1
    47     7    43    1
    48     7    44    1
    49     7    45    1
    50     9    46    1
    51    10    47    1
    52    14    48    1
    53    15    49    1
    54    24    50    1
    55    24    51    1
    56    24    52    1
    57    25    53    1
    58    25    54    1
    59    25    55    1
    60    26    56    1
    61    26    57    1
    62    27    58    1
    63    27    59    1
    64    29    60    1
    65    29    61    1
    66    29    62    1
    67    30    63    1
    68    30    64    1
    69    30    65    1
    70    34    66    1
    71    35    67    1
    72    68     1    1
    73    68    33    1
    74    68    18    1
    75    68    11    1
@<TRIPOS>MOLECULE
*****
 68 75 0 0 0
SMALL
GASTEIGER

@<TRIPOS>ATOM
      1 O          -2.1768    0.6355   -2.3243 O.2     1  UNL1        0.0000
      2 C          -1.9440    1.1708   -3.4171 C.2     1  UNL1        0.0000
      3 N          -3.0156    1.3097   -4.2817 N.am    1  UNL1        0.0000
      4 C          -4.3586    1.0702   -3.7525 C.3     1  UNL1        0.0000
      5 C          -2.8916    1.5597   -5.7137 C.3     1  UNL1        0.0000
      6 C          -2.2065    0.3408   -6.3676 C.3     1  UNL1        0.0000
      7 C          -2.1578    0.4341   -7.8853 C.3     1  UNL1        0.0000
      8 C          -0.4838    1.5348   -3.6841 C.ar    1  UNL1        0.0000
      9 C           0.1137    2.2066   -4.7862 C.ar    1  UNL1        0.0000
     10 C           1.5085    2.4495   -4.7970 C.ar    1  UNL1        0.0000
     11 N           0.3480    1.1755   -2.6869 N.ar    1  UNL1        0.0000
     12 C           1.6826    1.3802   -2.6673 C.ar    1  UNL1        0.0000
     13 C           2.3132    2.0288   -3.7244 C.ar    1  UNL1        0.0000
     14 C           3.7089    2.2282   -3.6605 C.ar    1  UNL1        0.0000
     15 C           4.4447    1.7657   -2.5421 C.ar    1  UNL1        0.0000
     16 C           3.7862    1.1050   -1.4837 C.ar    1  UNL1        0.0000
     17 C           2.4026    0.9290   -1.5699 C.ar    1  UNL1        0.0000
     18 N           1.7309    0.3084   -0.5829 N.ar    1  UNL1        0.0000
     19 C           2.3090   -0.1921    0.5251 C.ar    1  UNL1        0.0000
     20 C           1.3935   -0.8582    1.4744 C.ar    1  UNL1        0.0000
     21 N           1.8286   -1.4925    2.5890 N.ar    1  UNL1        0.0000
     22 C           0.9550   -2.1516    3.4035 C.ar    1  UNL1        0.0000
     23 C           1.5064   -2.9448    4.5825 C.3     1  UNL1        0.0000
     24 C           2.0119   -1.9503    5.6479 C.3     1  UNL1        0.0000
     25 C           2.6952   -3.8158    4.1176 C.3     1  UNL1        0.0000
     26 C           0.4327   -3.9105    5.1645 C.3     1  UNL1        0.0000
     27 C          -0.9140   -3.2166    5.3339 C.3     1  UNL1        0.0000
     28 C          -1.4966   -2.7624    3.9665 C.3     1  UNL1        0.0000
     29 C          -2.6369   -1.7626    4.2570 C.3     1  UNL1        0.0000
     30 C          -2.0814   -3.9561    3.1776 C.3     1  UNL1        0.0000
     31 C          -0.4310   -2.1027    3.1018 C.ar    1  UNL1        0.0000
     32 N          -0.8194   -1.4640    1.9663 N.ar    1  UNL1        0.0000
     33 N           0.0660   -0.8751    1.1707 N.ar    1  UNL1        0.0000
     34 C           3.7028   -0.0554    0.6741 C.ar    1  UNL1        0.0000
     35 C           4.4423    0.6036   -0.3383 C.ar    1  UNL1        0.0000
     36 H          -4.5787    1.8109   -2.9531 H       1  UNL1        0.0000
     37 H          -5.1529    1.1705   -4.5212 H       1  UNL1        0.0000
     38 H          -4.4309    0.0450   -3.3318 H       1  UNL1        0.0000
     39 H          -3.8944    1.6395   -6.1858 H       1  UNL1        0.0000
     40 H          -2.4270    2.5352   -5.9215 H       1  UNL1        0.0000
     41 H          -1.1755    0.2067   -5.9856 H       1  UNL1        0.0000
     42 H          -2.7836   -0.5724   -6.0990 H       1  UNL1        0.0000
     43 H          -3.1862    0.5075   -8.2979 H       1  UNL1        0.0000
     44 H          -1.6830   -0.4866   -8.2891 H       1  UNL1        0.0000
     45 H          -1.5619    1.3149   -8.1997 H       1  UNL1        0.0000
     46 H          -0.4240    2.5615   -5.6369 H       1  UNL1        0.0000
     47 H           1.9535    2.9635   -5.6403 H       1  UNL1        0.0000
     48 H           4.2266    2.7330   -4.4668 H       1  UNL1        0.0000
     49 H           5.5158    1.9215   -2.5070 H       1  UNL1        0.0000
     50 H           2.8172   -1.3075    5.2309 H       1  UNL1        0.0000
     51 H           2.4242   -2.4953    6.5243 H       1  UNL1        0.0000
     52 H           1.2008   -1.2815    6.0002 H       1  UNL1        0.0000
     53 H           2.3752   -4.5233    3.3214 H       1  UNL1        0.0000
     54 H           3.1062   -4.4058    4.9656 H       1  UNL1        0.0000
     55 H           3.5166   -3.1890    3.7080 H       1  UNL1        0.0000
     56 H           0.2797   -4.7747    4.4842 H       1  UNL1        0.0000
     57 H           0.7860   -4.3265    6.1332 H       1  UNL1        0.0000
     58 H          -0.7579   -2.3424    5.9989 H       1  UNL1        0.0000
     59 H          -1.6406   -3.8838    5.8475 H       1  UNL1        0.0000
     60 H          -3.1127   -1.4128    3.3152 H       1  UNL1        0.0000
     61 H          -2.2489   -0.8720    4.7972 H       1  UNL1        0.0000
     62 H          -3.4245   -2.2376    4.8814 H       1  UNL1        0.0000
     63 H          -2.5426   -3.6093    2.2269 H       1  UNL1        0.0000
     64 H          -1.2996   -4.6970    2.9132 H       1  UNL1        0.0000
     65 H          -2.8677   -4.4710    3.7702 H       1  UNL1        0.0000
     66 H           4.2071   -0.4461    1.5484 H       1  UNL1        0.0000
     67 H           5.5141    0.7142   -0.2301 H       1  UNL1        0.0000
     68 EU         -0.5475    0.1212   -0.8738 Eu      1  UNL1        0.0000
@<TRIPOS>BOND
     1     1     2    2
     2     2     3   am
     3     3     4    1
     4     3     5    1
     5     5     6    1
     6     6     7    1
     7     2     8    1
     8     8     9   ar
     9     9    10   ar
    10     8    11   ar
    11    11    12   ar
    12    12    13   ar
    13    10    13   ar
    14    13    14   ar
    15    14    15   ar
    16    15    16   ar
    17    16    17   ar
    18    12    17   ar
    19    17    18   ar
    20    18    19   ar
    21    19    20    1
    22    20    21   ar
    23    21    22   ar
    24    22    23    1
    25    23    24    1
    26    23    25    1
    27    23    26    1
    28    26    27    1
    29    27    28    1
    30    28    29    1
    31    28    30    1
    32    22    31   ar
    33    28    31    1
    34    31    32   ar
    35    32    33   ar
    36    20    33   ar
    37    19    34   ar
    38    34    35   ar
    39    16    35   ar
    40     4    36    1
    41     4    37    1
    42     4    38    1
    43     5    39    1
    44     5    40    1
    45     6    41    1
    46     6    42    1
    47     7    43    1
    48     7    44    1
    49     7    45    1
    50     9    46    1
    51    10    47    1
    52    14    48    1
    53    15    49    1
    54    24    50    1
    55    24    51    1
    56    24    52    1
    57    25    53    1
    58    25    54    1
    59    25    55    1
    60    26    56    1
    61    26    57    1
    62    27    58    1
    63    27    59    1
    64    29    60    1
    65    29    61    1
    66    29    62    1
    67    30    63    1
    68    30    64    1
    69    30    65    1
    70    34    66    1
    71    35    67    1
    72    68     1    1
    73    68    33    1
    74    68    18    1
    75    68    11    1
@<TRIPOS>MOLECULE
*****
 68 75 0 0 0
SMALL
GASTEIGER

@<TRIPOS>ATOM
      1 O          -2.1779    0.6130   -2.3306 O.2     1  UNL1        0.0000
      2 C          -1.9456    1.1503   -3.4233 C.2     1  UNL1        0.0000
      3 N          -3.0180    1.2916   -4.2863 N.am    1  UNL1        0.0000
      4 C          -4.3597    1.0389   -3.7602 C.3     1  UNL1        0.0000
      5 C          -2.8965    1.5668   -5.7141 C.3     1  UNL1        0.0000
      6 C          -2.2063    0.3645   -6.3929 C.3     1  UNL1        0.0000
      7 C          -2.1530    0.4960   -7.9079 C.3     1  UNL1        0.0000
      8 C          -0.4869    1.5162   -3.6887 C.ar    1  UNL1        0.0000
      9 C           0.1115    2.1882   -4.7921 C.ar    1  UNL1        0.0000
     10 C           1.5058    2.4307   -4.8027 C.ar    1  UNL1        0.0000
     11 N           0.3451    1.1579   -2.6924 N.ar    1  UNL1        0.0000
     12 C           1.6794    1.3636   -2.6719 C.ar    1  UNL1        0.0000
     13 C           2.3100    2.0110   -3.7296 C.ar    1  UNL1        0.0000
     14 C           3.7060    2.2112   -3.6664 C.ar    1  UNL1        0.0000
     15 C           4.4418    1.7515   -2.5471 C.ar    1  UNL1        0.0000
     16 C           3.7834    1.0917   -1.4885 C.ar    1  UNL1        0.0000
     17 C           2.3994    0.9155   -1.5750 C.ar    1  UNL1        0.0000
     18 N           1.7286    0.2958   -0.5868 N.ar    1  UNL1        0.0000
     19 C           2.3077   -0.2018    0.5221 C.ar    1  UNL1        0.0000
     20 C           1.3922   -0.8676    1.4728 C.ar    1  UNL1        0.0000
     21 N           1.8282   -1.4964    2.5901 N.ar    1  UNL1        0.0000
     22 C           0.9558   -2.1528    3.4083 C.ar    1  UNL1        0.0000
     23 C           1.5086   -2.9400    4.5911 C.3     1  UNL1        0.0000
     24 C           2.0136   -1.9405    5.6522 C.3     1  UNL1        0.0000
     25 C           2.6986   -3.8115    4.1295 C.3     1  UNL1        0.0000
     26 C           0.4364   -3.9043    5.1777 C.3     1  UNL1        0.0000
     27 C          -0.9109   -3.2111    5.3450 C.3     1  UNL1        0.0000
     28 C          -1.4949   -2.7635    3.9758 C.3     1  UNL1        0.0000
     29 C          -2.6355   -1.7630    4.2628 C.3     1  UNL1        0.0000
     30 C          -2.0793   -3.9610    3.1929 C.3     1  UNL1        0.0000
     31 C          -0.4304   -2.1070    3.1069 C.ar    1  UNL1        0.0000
     32 N          -0.8196   -1.4736    1.9687 N.ar    1  UNL1        0.0000
     33 N           0.0643   -0.8866    1.1698 N.ar    1  UNL1        0.0000
     34 C           3.7003   -0.0638    0.6727 C.ar    1  UNL1        0.0000
     35 C           4.4401    0.5941   -0.3418 C.ar    1  UNL1        0.0000
     36 H          -4.5834    1.7674   -2.9507 H       1  UNL1        0.0000
     37 H          -5.1549    1.1446   -4.5272 H       1  UNL1        0.0000
     38 H          -4.4260    0.0076   -3.3531 H       1  UNL1        0.0000
     39 H          -3.9000    1.6509   -6.1842 H       1  UNL1        0.0000
     40 H          -2.4359    2.5488   -5.9024 H       1  UNL1        0.0000
     41 H          -1.1762    0.2234   -6.0119 H       1  UNL1        0.0000
     42 H          -2.7810   -0.5564   -6.1473 H       1  UNL1        0.0000
     43 H          -3.1804    0.5750   -8.3220 H       1  UNL1        0.0000
     44 H          -1.6719   -0.4113   -8.3334 H       1  UNL1        0.0000
     45 H          -1.5609    1.3878   -8.1978 H       1  UNL1        0.0000
     46 H          -0.4260    2.5413   -5.6435 H       1  UNL1        0.0000
     47 H           1.9512    2.9433   -5.6467 H       1  UNL1        0.0000
     48 H           4.2231    2.7151   -4.4732 H       1  UNL1        0.0000
     49 H           5.5123    1.9086   -2.5115 H       1  UNL1        0.0000
     50 H           2.8180   -1.2984    5.2324 H       1  UNL1        0.0000
     51 H           2.4271   -2.4817    6.5304 H       1  UNL1        0.0000
     52 H           1.2021   -1.2711    6.0027 H       1  UNL1        0.0000
     53 H           2.3791   -4.5223    3.3361 H       1  UNL1        0.0000
     54 H           3.1104   -4.3972    4.9796 H       1  UNL1        0.0000
     55 H           3.5188   -3.1850    3.7170 H       1  UNL1        0.0000
     56 H           0.2840   -4.7713    4.5010 H       1  UNL1        0.0000
     57 H           0.7908   -4.3158    6.1479 H       1  UNL1        0.0000
     58 H          -0.7551   -2.3338    6.0062 H       1  UNL1        0.0000
     59 H          -1.6365   -3.8767    5.8621 H       1  UNL1        0.0000
     60 H          -3.1121   -1.4172    3.3200 H       1  UNL1        0.0000
     61 H          -2.2476   -0.8698    4.7990 H       1  UNL1        0.0000
     62 H          -3.4224   -2.2356    4.8899 H       1  UNL1        0.0000
     63 H          -2.5415   -3.6185    2.2411 H       1  UNL1        0.0000
     64 H          -1.2969   -4.7021    2.9311 H       1  UNL1        0.0000
     65 H          -2.8647   -4.4737    3.7885 H       1  UNL1        0.0000
     66 H           4.2043   -0.4506    1.5489 H       1  UNL1        0.0000
     67 H           5.5106    0.7070   -0.2318 H       1  UNL1        0.0000
     68 EU         -0.5497    0.1043   -0.8771 Eu      1  UNL1        0.0000
@<TRIPOS>BOND
     1     1     2    2
     2     2     3   am
     3     3     4    1
     4     3     5    1
     5     5     6    1
     6     6     7    1
     7     2     8    1
     8     8     9   ar
     9     9    10   ar
    10     8    11   ar
    11    11    12   ar
    12    12    13   ar
    13    10    13   ar
    14    13    14   ar
    15    14    15   ar
    16    15    16   ar
    17    16    17   ar
    18    12    17   ar
    19    17    18   ar
    20    18    19   ar
    21    19    20    1
    22    20    21   ar
    23    21    22   ar
    24    22    23    1
    25    23    24    1
    26    23    25    1
    27    23    26    1
    28    26    27    1
    29    27    28    1
    30    28    29    1
    31    28    30    1
    32    22    31   ar
    33    28    31    1
    34    31    32   ar
    35    32    33   ar
    36    20    33   ar
    37    19    34   ar
    38    34    35   ar
    39    16    35   ar
    40     4    36    1
    41     4    37    1
    42     4    38    1
    43     5    39    1
    44     5    40    1
    45     6    41    1
    46     6    42    1
    47     7    43    1
    48     7    44    1
    49     7    45    1
    50     9    46    1
    51    10    47    1
    52    14    48    1
    53    15    49    1
    54    24    50    1
    55    24    51    1
    56    24    52    1
    57    25    53    1
    58    25    54    1
    59    25    55    1
    60    26    56    1
    61    26    57    1
    62    27    58    1
    63    27    59    1
    64    29    60    1
    65    29    61    1
    66    29    62    1
    67    30    63    1
    68    30    64    1
    69    30    65    1
    70    34    66    1
    71    35    67    1
    72    68     1    1
    73    68    33    1
    74    68    18    1
    75    68    11    1
@<TRIPOS>MOLECULE
*****
 68 75 0 0 0
SMALL
GASTEIGER

@<TRIPOS>ATOM
      1 O          -2.1805    0.5896   -2.3373 O.2     1  UNL1        0.0000
      2 C          -1.9488    1.1288   -3.4292 C.2     1  UNL1        0.0000
      3 N          -3.0210    1.2730   -4.2923 N.am    1  UNL1        0.0000
      4 C          -4.3612    1.0067   -3.7693 C.3     1  UNL1        0.0000
      5 C          -2.9018    1.5729   -5.7148 C.3     1  UNL1        0.0000
      6 C          -2.2085    0.3873   -6.4190 C.3     1  UNL1        0.0000
      7 C          -2.1496    0.5580   -7.9300 C.3     1  UNL1        0.0000
      8 C          -0.4907    1.4979   -3.6937 C.ar    1  UNL1        0.0000
      9 C           0.1072    2.1697   -4.7961 C.ar    1  UNL1        0.0000
     10 C           1.5027    2.4123   -4.8071 C.ar    1  UNL1        0.0000
     11 N           0.3412    1.1406   -2.6945 N.ar    1  UNL1        0.0000
     12 C           1.6759    1.3482   -2.6754 C.ar    1  UNL1        0.0000
     13 C           2.3063    1.9951   -3.7336 C.ar    1  UNL1        0.0000
     14 C           3.7026    2.1959   -3.6702 C.ar    1  UNL1        0.0000
     15 C           4.4384    1.7384   -2.5505 C.ar    1  UNL1        0.0000
     16 C           3.7799    1.0803   -1.4905 C.ar    1  UNL1        0.0000
     17 C           2.3971    0.9021   -1.5768 C.ar    1  UNL1        0.0000
     18 N           1.7257    0.2832   -0.5881 N.ar    1  UNL1        0.0000
     19 C           2.3049   -0.2110    0.5218 C.ar    1  UNL1        0.0000
     20 C           1.3908   -0.8750    1.4740 C.ar    1  UNL1        0.0000
     21 N           1.8279   -1.4996    2.5934 N.ar    1  UNL1        0.0000
     22 C           0.9569   -2.1542    3.4142 C.ar    1  UNL1        0.0000
     23 C           1.5110   -2.9353    4.6000 C.3     1  UNL1        0.0000
     24 C           2.0152   -1.9297    5.6561 C.3     1  UNL1        0.0000
     25 C           2.7019   -3.8070    4.1420 C.3     1  UNL1        0.0000
     26 C           0.4403   -3.8979    5.1916 C.3     1  UNL1        0.0000
     27 C          -0.9076   -3.2053    5.3564 C.3     1  UNL1        0.0000
     28 C          -1.4928   -2.7648    3.9853 C.3     1  UNL1        0.0000
     29 C          -2.6339   -1.7637    4.2683 C.3     1  UNL1        0.0000
     30 C          -2.0769   -3.9665    3.2087 C.3     1  UNL1        0.0000
     31 C          -0.4294   -2.1115    3.1127 C.ar    1  UNL1        0.0000
     32 N          -0.8198   -1.4838    1.9714 N.ar    1  UNL1        0.0000
     33 N           0.0633   -0.8980    1.1708 N.ar    1  UNL1        0.0000
     34 C           3.6974   -0.0704    0.6724 C.ar    1  UNL1        0.0000
     35 C           4.4366    0.5854   -0.3419 C.ar    1  UNL1        0.0000
     36 H          -4.5887    1.7231   -2.9499 H       1  UNL1        0.0000
     37 H          -5.1571    1.1185   -4.5348 H       1  UNL1        0.0000
     38 H          -4.4221   -0.0302   -3.3761 H       1  UNL1        0.0000
     39 H          -3.9057    1.6632   -6.1829 H       1  UNL1        0.0000
     40 H          -2.4439    2.5605   -5.8834 H       1  UNL1        0.0000
     41 H          -1.1797    0.2366   -6.0386 H       1  UNL1        0.0000
     42 H          -2.7829   -0.5398   -6.1976 H       1  UNL1        0.0000
     43 H          -3.1754    0.6463   -8.3461 H       1  UNL1        0.0000
     44 H          -1.6644   -0.3363   -8.3777 H       1  UNL1        0.0000
     45 H          -1.5584    1.4586   -8.1941 H       1  UNL1        0.0000
     46 H          -0.4282    2.5211   -5.6494 H       1  UNL1        0.0000
     47 H           1.9480    2.9251   -5.6521 H       1  UNL1        0.0000
     48 H           4.2193    2.6995   -4.4778 H       1  UNL1        0.0000
     49 H           5.5093    1.8962   -2.5150 H       1  UNL1        0.0000
     50 H           2.8186   -1.2884    5.2329 H       1  UNL1        0.0000
     51 H           2.4298   -2.4659    6.5365 H       1  UNL1        0.0000
     52 H           1.2031   -1.2596    6.0039 H       1  UNL1        0.0000
     53 H           2.3832   -4.5221    3.3524 H       1  UNL1        0.0000
     54 H           3.1152   -4.3879    4.9950 H       1  UNL1        0.0000
     55 H           3.5211   -3.1813    3.7263 H       1  UNL1        0.0000
     56 H           0.2886   -4.7684    4.5194 H       1  UNL1        0.0000
     57 H           0.7957   -4.3041    6.1640 H       1  UNL1        0.0000
     58 H          -0.7524   -2.3248    6.0132 H       1  UNL1        0.0000
     59 H          -1.6323   -3.8692    5.8771 H       1  UNL1        0.0000
     60 H          -3.1114   -1.4227    3.3243 H       1  UNL1        0.0000
     61 H          -2.2459   -0.8677    4.7998 H       1  UNL1        0.0000
     62 H          -3.4199   -2.2337    4.8984 H       1  UNL1        0.0000
     63 H          -2.5401   -3.6291    2.2555 H       1  UNL1        0.0000
     64 H          -1.2942   -4.7085    2.9502 H       1  UNL1        0.0000
     65 H          -2.8614   -4.4768    3.8074 H       1  UNL1        0.0000
     66 H           4.2020   -0.4557    1.5491 H       1  UNL1        0.0000
     67 H           5.5075    0.6992   -0.2335 H       1  UNL1        0.0000
     68 EU         -0.5527    0.0868   -0.8799 Eu      1  UNL1        0.0000
@<TRIPOS>BOND
     1     1     2    2
     2     2     3   am
     3     3     4    1
     4     3     5    1
     5     5     6    1
     6     6     7    1
     7     2     8    1
     8     8     9   ar
     9     9    10   ar
    10     8    11   ar
    11    11    12   ar
    12    12    13   ar
    13    10    13   ar
    14    13    14   ar
    15    14    15   ar
    16    15    16   ar
    17    16    17   ar
    18    12    17   ar
    19    17    18   ar
    20    18    19   ar
    21    19    20    1
    22    20    21   ar
    23    21    22   ar
    24    22    23    1
    25    23    24    1
    26    23    25    1
    27    23    26    1
    28    26    27    1
    29    27    28    1
    30    28    29    1
    31    28    30    1
    32    22    31   ar
    33    28    31    1
    34    31    32   ar
    35    32    33   ar
    36    20    33   ar
    37    19    34   ar
    38    34    35   ar
    39    16    35   ar
    40     4    36    1
    41     4    37    1
    42     4    38    1
    43     5    39    1
    44     5    40    1
    45     6    41    1
    46     6    42    1
    47     7    43    1
    48     7    44    1
    49     7    45    1
    50     9    46    1
    51    10    47    1
    52    14    48    1
    53    15    49    1
    54    24    50    1
    55    24    51    1
    56    24    52    1
    57    25    53    1
    58    25    54    1
    59    25    55    1
    60    26    56    1
    61    26    57    1
    62    27    58    1
    63    27    59    1
    64    29    60    1
    65    29    61    1
    66    29    62    1
    67    30    63    1
    68    30    64    1
    69    30    65    1
    70    34    66    1
    71    35    67    1
    72    68     1    1
    73    68    33    1
    74    68    18    1
    75    68    11    1
@<TRIPOS>MOLECULE
*****
 68 75 0 0 0
SMALL
GASTEIGER

@<TRIPOS>ATOM
      1 O          -2.1799    0.5717   -2.3442 O.2     1  UNL1        0.0000
      2 C          -1.9492    1.1104   -3.4356 C.2     1  UNL1        0.0000
      3 N          -3.0220    1.2592   -4.2975 N.am    1  UNL1        0.0000
      4 C          -4.3611    0.9811   -3.7773 C.3     1  UNL1        0.0000
      5 C          -2.9050    1.5793   -5.7158 C.3     1  UNL1        0.0000
      6 C          -2.2112    0.4066   -6.4404 C.3     1  UNL1        0.0000
      7 C          -2.1474    0.6096   -7.9474 C.3     1  UNL1        0.0000
      8 C          -0.4894    1.4827   -3.6991 C.ar    1  UNL1        0.0000
      9 C           0.1081    2.1547   -4.8017 C.ar    1  UNL1        0.0000
     10 C           1.5021    2.3991   -4.8124 C.ar    1  UNL1        0.0000
     11 N           0.3409    1.1271   -2.6992 N.ar    1  UNL1        0.0000
     12 C           1.6749    1.3362   -2.6793 C.ar    1  UNL1        0.0000
     13 C           2.3065    1.9823   -3.7370 C.ar    1  UNL1        0.0000
     14 C           3.7018    2.1847   -3.6743 C.ar    1  UNL1        0.0000
     15 C           4.4373    1.7283   -2.5529 C.ar    1  UNL1        0.0000
     16 C           3.7789    1.0714   -1.4931 C.ar    1  UNL1        0.0000
     17 C           2.3964    0.8921   -1.5792 C.ar    1  UNL1        0.0000
     18 N           1.7252    0.2731   -0.5910 N.ar    1  UNL1        0.0000
     19 C           2.3044   -0.2203    0.5200 C.ar    1  UNL1        0.0000
     20 C           1.3902   -0.8833    1.4726 C.ar    1  UNL1        0.0000
     21 N           1.8279   -1.5036    2.5945 N.ar    1  UNL1        0.0000
     22 C           0.9577   -2.1558    3.4178 C.ar    1  UNL1        0.0000
     23 C           1.5131   -2.9307    4.6074 C.3     1  UNL1        0.0000
     24 C           2.0165   -1.9203    5.6593 C.3     1  UNL1        0.0000
     25 C           2.7050   -3.8032    4.1532 C.3     1  UNL1        0.0000
     26 C           0.4437   -3.8920    5.2037 C.3     1  UNL1        0.0000
     27 C          -0.9048   -3.2002    5.3656 C.3     1  UNL1        0.0000
     28 C          -1.4910   -2.7663    3.9924 C.3     1  UNL1        0.0000
     29 C          -2.6324   -1.7647    4.2724 C.3     1  UNL1        0.0000
     30 C          -2.0751   -3.9721    3.2225 C.3     1  UNL1        0.0000
     31 C          -0.4282   -2.1163    3.1155 C.ar    1  UNL1        0.0000
     32 N          -0.8194   -1.4938    1.9713 N.ar    1  UNL1        0.0000
     33 N           0.0631   -0.9093    1.1688 N.ar    1  UNL1        0.0000
     34 C           3.6965   -0.0775    0.6708 C.ar    1  UNL1        0.0000
     35 C           4.4350    0.5779   -0.3443 C.ar    1  UNL1        0.0000
     36 H          -4.5920    1.6868   -2.9497 H       1  UNL1        0.0000
     37 H          -5.1574    1.0972   -4.5416 H       1  UNL1        0.0000
     38 H          -4.4171   -0.0607   -3.3961 H       1  UNL1        0.0000
     39 H          -3.9096    1.6754   -6.1814 H       1  UNL1        0.0000
     40 H          -2.4486    2.5705   -5.8681 H       1  UNL1        0.0000
     41 H          -1.1838    0.2465   -6.0606 H       1  UNL1        0.0000
     42 H          -2.7870   -0.5241   -6.2391 H       1  UNL1        0.0000
     43 H          -3.1718    0.7077   -8.3650 H       1  UNL1        0.0000
     44 H          -1.6608   -0.2746   -8.4131 H       1  UNL1        0.0000
     45 H          -1.5553    1.5157   -8.1900 H       1  UNL1        0.0000
     46 H          -0.4291    2.5050   -5.6552 H       1  UNL1        0.0000
     47 H           1.9467    2.9108   -5.6571 H       1  UNL1        0.0000
     48 H           4.2184    2.6874   -4.4820 H       1  UNL1        0.0000
     49 H           5.5080    1.8865   -2.5177 H       1  UNL1        0.0000
     50 H           2.8190   -1.2800    5.2333 H       1  UNL1        0.0000
     51 H           2.4320   -2.4524    6.5421 H       1  UNL1        0.0000
     52 H           1.2038   -1.2496    6.0046 H       1  UNL1        0.0000
     53 H           2.3868   -4.5220    3.3666 H       1  UNL1        0.0000
     54 H           3.1189   -4.3800    5.0084 H       1  UNL1        0.0000
     55 H           3.5233   -3.1784    3.7345 H       1  UNL1        0.0000
     56 H           0.2927   -4.7656    4.5351 H       1  UNL1        0.0000
     57 H           0.7998   -4.2937    6.1774 H       1  UNL1        0.0000
     58 H          -0.7502   -2.3167    6.0189 H       1  UNL1        0.0000
     59 H          -1.6285   -3.8624    5.8898 H       1  UNL1        0.0000
     60 H          -3.1111   -1.4283    3.3273 H       1  UNL1        0.0000
     61 H          -2.2446   -0.8661    4.7996 H       1  UNL1        0.0000
     62 H          -3.4176   -2.2322    4.9055 H       1  UNL1        0.0000
     63 H          -2.5391   -3.6394    2.2682 H       1  UNL1        0.0000
     64 H          -1.2920   -4.7147    2.9671 H       1  UNL1        0.0000
     65 H          -2.8588   -4.4799    3.8244 H       1  UNL1        0.0000
     66 H           4.2007   -0.4609    1.5485 H       1  UNL1        0.0000
     67 H           5.5063    0.6928   -0.2346 H       1  UNL1        0.0000
     68 EU         -0.5526    0.0720   -0.8845 Eu      1  UNL1        0.0000
@<TRIPOS>BOND
     1     1     2    2
     2     2     3   am
     3     3     4    1
     4     3     5    1
     5     5     6    1
     6     6     7    1
     7     2     8    1
     8     8     9   ar
     9     9    10   ar
    10     8    11   ar
    11    11    12   ar
    12    12    13   ar
    13    10    13   ar
    14    13    14   ar
    15    14    15   ar
    16    15    16   ar
    17    16    17   ar
    18    12    17   ar
    19    17    18   ar
    20    18    19   ar
    21    19    20    1
    22    20    21   ar
    23    21    22   ar
    24    22    23    1
    25    23    24    1
    26    23    25    1
    27    23    26    1
    28    26    27    1
    29    27    28    1
    30    28    29    1
    31    28    30    1
    32    22    31   ar
    33    28    31    1
    34    31    32   ar
    35    32    33   ar
    36    20    33   ar
    37    19    34   ar
    38    34    35   ar
    39    16    35   ar
    40     4    36    1
    41     4    37    1
    42     4    38    1
    43     5    39    1
    44     5    40    1
    45     6    41    1
    46     6    42    1
    47     7    43    1
    48     7    44    1
    49     7    45    1
    50     9    46    1
    51    10    47    1
    52    14    48    1
    53    15    49    1
    54    24    50    1
    55    24    51    1
    56    24    52    1
    57    25    53    1
    58    25    54    1
    59    25    55    1
    60    26    56    1
    61    26    57    1
    62    27    58    1
    63    27    59    1
    64    29    60    1
    65    29    61    1
    66    29    62    1
    67    30    63    1
    68    30    64    1
    69    30    65    1
    70    34    66    1
    71    35    67    1
    72    68     1    1
    73    68    33    1
    74    68    18    1
    75    68    11    1
@<TRIPOS>MOLECULE
*****
 68 75 0 0 0
SMALL
GASTEIGER

@<TRIPOS>ATOM
      1 O          -2.1811    0.5535   -2.3501 O.2     1  UNL1        0.0000
      2 C          -1.9501    1.0944   -3.4409 C.2     1  UNL1        0.0000
      3 N          -3.0233    1.2454   -4.3024 N.am    1  UNL1        0.0000
      4 C          -4.3615    0.9570   -3.7853 C.3     1  UNL1        0.0000
      5 C          -2.9080    1.5852   -5.7163 C.3     1  UNL1        0.0000
      6 C          -2.2143    0.4250   -6.4607 C.3     1  UNL1        0.0000
      7 C          -2.1459    0.6592   -7.9633 C.3     1  UNL1        0.0000
      8 C          -0.4916    1.4688   -3.7028 C.ar    1  UNL1        0.0000
      9 C           0.1067    2.1410   -4.8054 C.ar    1  UNL1        0.0000
     10 C           1.5003    2.3860   -4.8148 C.ar    1  UNL1        0.0000
     11 N           0.3393    1.1131   -2.7032 N.ar    1  UNL1        0.0000
     12 C           1.6728    1.3237   -2.6816 C.ar    1  UNL1        0.0000
     13 C           2.3037    1.9703   -3.7401 C.ar    1  UNL1        0.0000
     14 C           3.6990    2.1731   -3.6764 C.ar    1  UNL1        0.0000
     15 C           4.4349    1.7168   -2.5556 C.ar    1  UNL1        0.0000
     16 C           3.7766    1.0616   -1.4949 C.ar    1  UNL1        0.0000
     17 C           2.3941    0.8801   -1.5821 C.ar    1  UNL1        0.0000
     18 N           1.7229    0.2622   -0.5925 N.ar    1  UNL1        0.0000
     19 C           2.3018   -0.2276    0.5190 C.ar    1  UNL1        0.0000
     20 C           1.3888   -0.8902    1.4734 C.ar    1  UNL1        0.0000
     21 N           1.8276   -1.5063    2.5970 N.ar    1  UNL1        0.0000
     22 C           0.9584   -2.1576    3.4223 C.ar    1  UNL1        0.0000
     23 C           1.5150   -2.9263    4.6151 C.3     1  UNL1        0.0000
     24 C           2.0175   -1.9107    5.6621 C.3     1  UNL1        0.0000
     25 C           2.7079   -3.7995    4.1641 C.3     1  UNL1        0.0000
     26 C           0.4469   -3.8864    5.2154 C.3     1  UNL1        0.0000
     27 C          -0.9022   -3.1953    5.3746 C.3     1  UNL1        0.0000
     28 C          -1.4894   -2.7682    3.9998 C.3     1  UNL1        0.0000
     29 C          -2.6312   -1.7660    4.2756 C.3     1  UNL1        0.0000
     30 C          -2.0728   -3.9778    3.2354 C.3     1  UNL1        0.0000
     31 C          -0.4278   -2.1208    3.1200 C.ar    1  UNL1        0.0000
     32 N          -0.8196   -1.5029    1.9733 N.ar    1  UNL1        0.0000
     33 N           0.0620   -0.9192    1.1689 N.ar    1  UNL1        0.0000
     34 C           3.6944   -0.0846    0.6707 C.ar    1  UNL1        0.0000
     35 C           4.4330    0.5683   -0.3451 C.ar    1  UNL1        0.0000
     36 H          -4.5953    1.6525   -2.9502 H       1  UNL1        0.0000
     37 H          -5.1580    1.0780   -4.5487 H       1  UNL1        0.0000
     38 H          -4.4133   -0.0892   -3.4157 H       1  UNL1        0.0000
     39 H          -3.9130    1.6878   -6.1796 H       1  UNL1        0.0000
     40 H          -2.4523    2.5794   -5.8529 H       1  UNL1        0.0000
     41 H          -1.1884    0.2550   -6.0817 H       1  UNL1        0.0000
     42 H          -2.7921   -0.5083   -6.2791 H       1  UNL1        0.0000
     43 H          -3.1687    0.7682   -8.3819 H       1  UNL1        0.0000
     44 H          -1.6589   -0.2153   -8.4463 H       1  UNL1        0.0000
     45 H          -1.5518    1.5696   -8.1851 H       1  UNL1        0.0000
     46 H          -0.4294    2.4909   -5.6594 H       1  UNL1        0.0000
     47 H           1.9455    2.8974   -5.6597 H       1  UNL1        0.0000
     48 H           4.2160    2.6755   -4.4846 H       1  UNL1        0.0000
     49 H           5.5055    1.8772   -2.5197 H       1  UNL1        0.0000
     50 H           2.8193   -1.2715    5.2331 H       1  UNL1        0.0000
     51 H           2.4339   -2.4385    6.5472 H       1  UNL1        0.0000
     52 H           1.2042   -1.2395    6.0046 H       1  UNL1        0.0000
     53 H           2.3904   -4.5222    3.3808 H       1  UNL1        0.0000
     54 H           3.1227   -4.3719    5.0218 H       1  UNL1        0.0000
     55 H           3.5253   -3.1755    3.7425 H       1  UNL1        0.0000
     56 H           0.2967   -4.7630    4.5507 H       1  UNL1        0.0000
     57 H           0.8037   -4.2833    6.1909 H       1  UNL1        0.0000
     58 H          -0.7484   -2.3086    6.0237 H       1  UNL1        0.0000
     59 H          -1.6251   -3.8558    5.9019 H       1  UNL1        0.0000
     60 H          -3.1106   -1.4340    3.3294 H       1  UNL1        0.0000
     61 H          -2.2436   -0.8647    4.7986 H       1  UNL1        0.0000
     62 H          -3.4156   -2.2311    4.9112 H       1  UNL1        0.0000
     63 H          -2.5375   -3.6498    2.2798 H       1  UNL1        0.0000
     64 H          -1.2893   -4.7211    2.9833 H       1  UNL1        0.0000
     65 H          -2.8559   -4.4832    3.8401 H       1  UNL1        0.0000
     66 H           4.1987   -0.4671    1.5490 H       1  UNL1        0.0000
     67 H           5.5039    0.6858   -0.2355 H       1  UNL1        0.0000
     68 EU         -0.5550    0.0578   -0.8870 Eu      1  UNL1        0.0000
@<TRIPOS>BOND
     1     1     2    2
     2     2     3   am
     3     3     4    1
     4     3     5    1
     5     5     6    1
     6     6     7    1
     7     2     8    1
     8     8     9   ar
     9     9    10   ar
    10     8    11   ar
    11    11    12   ar
    12    12    13   ar
    13    10    13   ar
    14    13    14   ar
    15    14    15   ar
    16    15    16   ar
    17    16    17   ar
    18    12    17   ar
    19    17    18   ar
    20    18    19   ar
    21    19    20    1
    22    20    21   ar
    23    21    22   ar
    24    22    23    1
    25    23    24    1
    26    23    25    1
    27    23    26    1
    28    26    27    1
    29    27    28    1
    30    28    29    1
    31    28    30    1
    32    22    31   ar
    33    28    31    1
    34    31    32   ar
    35    32    33   ar
    36    20    33   ar
    37    19    34   ar
    38    34    35   ar
    39    16    35   ar
    40     4    36    1
    41     4    37    1
    42     4    38    1
    43     5    39    1
    44     5    40    1
    45     6    41    1
    46     6    42    1
    47     7    43    1
    48     7    44    1
    49     7    45    1
    50     9    46    1
    51    10    47    1
    52    14    48    1
    53    15    49    1
    54    24    50    1
    55    24    51    1
    56    24    52    1
    57    25    53    1
    58    25    54    1
    59    25    55    1
    60    26    56    1
    61    26    57    1
    62    27    58    1
    63    27    59    1
    64    29    60    1
    65    29    61    1
    66    29    62    1
    67    30    63    1
    68    30    64    1
    69    30    65    1
    70    34    66    1
    71    35    67    1
    72    68     1    1
    73    68    33    1
    74    68    18    1
    75    68    11    1
@<TRIPOS>MOLECULE
*****
 68 75 0 0 0
SMALL
GASTEIGER

@<TRIPOS>ATOM
      1 O          -2.1814    0.5360   -2.3562 O.2     1  UNL1        0.0000
      2 C          -1.9507    1.0787   -3.4463 C.2     1  UNL1        0.0000
      3 N          -3.0243    1.2330   -4.3073 N.am    1  UNL1        0.0000
      4 C          -4.3616    0.9354   -3.7931 C.3     1  UNL1        0.0000
      5 C          -2.9108    1.5906   -5.7169 C.3     1  UNL1        0.0000
      6 C          -2.2179    0.4418   -6.4790 C.3     1  UNL1        0.0000
      7 C          -2.1450    0.7039   -7.9769 C.3     1  UNL1        0.0000
      8 C          -0.4924    1.4551   -3.7068 C.ar    1  UNL1        0.0000
      9 C           0.1060    2.1282   -4.8087 C.ar    1  UNL1        0.0000
     10 C           1.4994    2.3744   -4.8174 C.ar    1  UNL1        0.0000
     11 N           0.3385    1.1000   -2.7065 N.ar    1  UNL1        0.0000
     12 C           1.6718    1.3132   -2.6829 C.ar    1  UNL1        0.0000
     13 C           2.3028    1.9598   -3.7417 C.ar    1  UNL1        0.0000
     14 C           3.6973    2.1641   -3.6779 C.ar    1  UNL1        0.0000
     15 C           4.4330    1.7107   -2.5563 C.ar    1  UNL1        0.0000
     16 C           3.7748    1.0537   -1.4953 C.ar    1  UNL1        0.0000
     17 C           2.3917    0.8704   -1.5837 C.ar    1  UNL1        0.0000
     18 N           1.7217    0.2514   -0.5947 N.ar    1  UNL1        0.0000
     19 C           2.3014   -0.2358    0.5181 C.ar    1  UNL1        0.0000
     20 C           1.3888   -0.8983    1.4730 C.ar    1  UNL1        0.0000
     21 N           1.8279   -1.5098    2.5988 N.ar    1  UNL1        0.0000
     22 C           0.9594   -2.1591    3.4260 C.ar    1  UNL1        0.0000
     23 C           1.5169   -2.9220    4.6220 C.3     1  UNL1        0.0000
     24 C           2.0183   -1.9014    5.6649 C.3     1  UNL1        0.0000
     25 C           2.7106   -3.7957    4.1748 C.3     1  UNL1        0.0000
     26 C           0.4498   -3.8805    5.2267 C.3     1  UNL1        0.0000
     27 C          -0.9001   -3.1901    5.3829 C.3     1  UNL1        0.0000
     28 C          -1.4877   -2.7697    4.0063 C.3     1  UNL1        0.0000
     29 C          -2.6303   -1.7672    4.2779 C.3     1  UNL1        0.0000
     30 C          -2.0705   -3.9832    3.2476 C.3     1  UNL1        0.0000
     31 C          -0.4267   -2.1252    3.1235 C.ar    1  UNL1        0.0000
     32 N          -0.8188   -1.5123    1.9740 N.ar    1  UNL1        0.0000
     33 N           0.0622   -0.9299    1.1684 N.ar    1  UNL1        0.0000
     34 C           3.6933   -0.0904    0.6700 C.ar    1  UNL1        0.0000
     35 C           4.4318    0.5636   -0.3455 C.ar    1  UNL1        0.0000
     36 H          -4.5978    1.6218   -2.9510 H       1  UNL1        0.0000
     37 H          -5.1585    1.0610   -4.5554 H       1  UNL1        0.0000
     38 H          -4.4097   -0.1146   -3.4340 H       1  UNL1        0.0000
     39 H          -3.9163    1.6994   -6.1781 H       1  UNL1        0.0000
     40 H          -2.4554    2.5871   -5.8395 H       1  UNL1        0.0000
     41 H          -1.1934    0.2623   -6.1007 H       1  UNL1        0.0000
     42 H          -2.7981   -0.4933   -6.3150 H       1  UNL1        0.0000
     43 H          -3.1664    0.8233   -8.3961 H       1  UNL1        0.0000
     44 H          -1.6583   -0.1621   -8.4753 H       1  UNL1        0.0000
     45 H          -1.5485    1.6172   -8.1798 H       1  UNL1        0.0000
     46 H          -0.4298    2.4777   -5.6636 H       1  UNL1        0.0000
     47 H           1.9441    2.8863   -5.6623 H       1  UNL1        0.0000
     48 H           4.2138    2.6668   -4.4865 H       1  UNL1        0.0000
     49 H           5.5037    1.8709   -2.5208 H       1  UNL1        0.0000
     50 H           2.8193   -1.2630    5.2330 H       1  UNL1        0.0000
     51 H           2.4353   -2.4249    6.5521 H       1  UNL1        0.0000
     52 H           1.2043   -1.2295    6.0045 H       1  UNL1        0.0000
     53 H           2.3938   -4.5221    3.3947 H       1  UNL1        0.0000
     54 H           3.1262   -4.3641    5.0350 H       1  UNL1        0.0000
     55 H           3.5272   -3.1726    3.7504 H       1  UNL1        0.0000
     56 H           0.3004   -4.7602    4.5657 H       1  UNL1        0.0000
     57 H           0.8070   -4.2729    6.2038 H       1  UNL1        0.0000
     58 H          -0.7470   -2.3005    6.0280 H       1  UNL1        0.0000
     59 H          -1.6222   -3.8490    5.9133 H       1  UNL1        0.0000
     60 H          -3.1104   -1.4399    3.3304 H       1  UNL1        0.0000
     61 H          -2.2431   -0.8633    4.7965 H       1  UNL1        0.0000
     62 H          -3.4141   -2.2300    4.9161 H       1  UNL1        0.0000
     63 H          -2.5359   -3.6600    2.2907 H       1  UNL1        0.0000
     64 H          -1.2865   -4.7271    2.9986 H       1  UNL1        0.0000
     65 H          -2.8530   -4.4866    3.8549 H       1  UNL1        0.0000
     66 H           4.1976   -0.4707    1.5493 H       1  UNL1        0.0000
     67 H           5.5026    0.6806   -0.2358 H       1  UNL1        0.0000
     68 EU         -0.5558    0.0436   -0.8904 Eu      1  UNL1        0.0000
@<TRIPOS>BOND
     1     1     2    2
     2     2     3   am
     3     3     4    1
     4     3     5    1
     5     5     6    1
     6     6     7    1
     7     2     8    1
     8     8     9   ar
     9     9    10   ar
    10     8    11   ar
    11    11    12   ar
    12    12    13   ar
    13    10    13   ar
    14    13    14   ar
    15    14    15   ar
    16    15    16   ar
    17    16    17   ar
    18    12    17   ar
    19    17    18   ar
    20    18    19   ar
    21    19    20    1
    22    20    21   ar
    23    21    22   ar
    24    22    23    1
    25    23    24    1
    26    23    25    1
    27    23    26    1
    28    26    27    1
    29    27    28    1
    30    28    29    1
    31    28    30    1
    32    22    31   ar
    33    28    31    1
    34    31    32   ar
    35    32    33   ar
    36    20    33   ar
    37    19    34   ar
    38    34    35   ar
    39    16    35   ar
    40     4    36    1
    41     4    37    1
    42     4    38    1
    43     5    39    1
    44     5    40    1
    45     6    41    1
    46     6    42    1
    47     7    43    1
    48     7    44    1
    49     7    45    1
    50     9    46    1
    51    10    47    1
    52    14    48    1
    53    15    49    1
    54    24    50    1
    55    24    51    1
    56    24    52    1
    57    25    53    1
    58    25    54    1
    59    25    55    1
    60    26    56    1
    61    26    57    1
    62    27    58    1
    63    27    59    1
    64    29    60    1
    65    29    61    1
    66    29    62    1
    67    30    63    1
    68    30    64    1
    69    30    65    1
    70    34    66    1
    71    35    67    1
    72    68     1    1
    73    68    33    1
    74    68    18    1
    75    68    11    1
@<TRIPOS>MOLECULE
*****
 68 75 0 0 0
SMALL
GASTEIGER

@<TRIPOS>ATOM
      1 O          -2.1813    0.5188   -2.3625 O.2     1  UNL1        0.0000
      2 C          -1.9509    1.0636   -3.4517 C.2     1  UNL1        0.0000
      3 N          -3.0248    1.2213   -4.3119 N.am    1  UNL1        0.0000
      4 C          -4.3611    0.9149   -3.8004 C.3     1  UNL1        0.0000
      5 C          -2.9130    1.5963   -5.7169 C.3     1  UNL1        0.0000
      6 C          -2.2215    0.4586   -6.4965 C.3     1  UNL1        0.0000
      7 C          -2.1445    0.7483   -7.9895 C.3     1  UNL1        0.0000
      8 C          -0.4929    1.4421   -3.7104 C.ar    1  UNL1        0.0000
      9 C           0.1057    2.1158   -4.8119 C.ar    1  UNL1        0.0000
     10 C           1.4987    2.3631   -4.8198 C.ar    1  UNL1        0.0000
     11 N           0.3377    1.0868   -2.7096 N.ar    1  UNL1        0.0000
     12 C           1.6707    1.3009   -2.6861 C.ar    1  UNL1        0.0000
     13 C           2.3012    1.9487   -3.7439 C.ar    1  UNL1        0.0000
     14 C           3.6959    2.1544   -3.6792 C.ar    1  UNL1        0.0000
     15 C           4.4314    1.7019   -2.5580 C.ar    1  UNL1        0.0000
     16 C           3.7735    1.0442   -1.4979 C.ar    1  UNL1        0.0000
     17 C           2.3912    0.8602   -1.5859 C.ar    1  UNL1        0.0000
     18 N           1.7206    0.2408   -0.5976 N.ar    1  UNL1        0.0000
     19 C           2.3001   -0.2451    0.5166 C.ar    1  UNL1        0.0000
     20 C           1.3882   -0.9074    1.4713 C.ar    1  UNL1        0.0000
     21 N           1.8279   -1.5145    2.5993 N.ar    1  UNL1        0.0000
     22 C           0.9604   -2.1617    3.4289 C.ar    1  UNL1        0.0000
     23 C           1.5187   -2.9182    4.6286 C.3     1  UNL1        0.0000
     24 C           2.0190   -1.8920    5.6667 C.3     1  UNL1        0.0000
     25 C           2.7136   -3.7924    4.1857 C.3     1  UNL1        0.0000
     26 C           0.4528   -3.8750    5.2379 C.3     1  UNL1        0.0000
     27 C          -0.8977   -3.1850    5.3908 C.3     1  UNL1        0.0000
     28 C          -1.4860   -2.7719    4.0122 C.3     1  UNL1        0.0000
     29 C          -2.6291   -1.7687    4.2796 C.3     1  UNL1        0.0000
     30 C          -2.0681   -3.9895    3.2599 C.3     1  UNL1        0.0000
     31 C          -0.4258   -2.1313    3.1256 C.ar    1  UNL1        0.0000
     32 N          -0.8188   -1.5238    1.9734 N.ar    1  UNL1        0.0000
     33 N           0.0619   -0.9420    1.1655 N.ar    1  UNL1        0.0000
     34 C           3.6921   -0.0978    0.6690 C.ar    1  UNL1        0.0000
     35 C           4.4301    0.5564   -0.3470 C.ar    1  UNL1        0.0000
     36 H          -4.5996    1.5920   -2.9516 H       1  UNL1        0.0000
     37 H          -5.1583    1.0449   -4.5616 H       1  UNL1        0.0000
     38 H          -4.4057   -0.1389   -3.4518 H       1  UNL1        0.0000
     39 H          -3.9189    1.7117   -6.1755 H       1  UNL1        0.0000
     40 H          -2.4574    2.5947   -5.8257 H       1  UNL1        0.0000
     41 H          -1.1984    0.2692   -6.1196 H       1  UNL1        0.0000
     42 H          -2.8045   -0.4776   -6.3502 H       1  UNL1        0.0000
     43 H          -3.1644    0.8790   -8.4089 H       1  UNL1        0.0000
     44 H          -1.6588   -0.1090   -8.5034 H       1  UNL1        0.0000
     45 H          -1.5452    1.6639   -8.1738 H       1  UNL1        0.0000
     46 H          -0.4294    2.4650   -5.6677 H       1  UNL1        0.0000
     47 H           1.9437    2.8753   -5.6646 H       1  UNL1        0.0000
     48 H           4.2123    2.6572   -4.4880 H       1  UNL1        0.0000
     49 H           5.5019    1.8630   -2.5219 H       1  UNL1        0.0000
     50 H           2.8193   -1.2548    5.2320 H       1  UNL1        0.0000
     51 H           2.4366   -2.4108    6.5564 H       1  UNL1        0.0000
     52 H           1.2043   -1.2194    6.0033 H       1  UNL1        0.0000
     53 H           2.3978   -4.5229    3.4090 H       1  UNL1        0.0000
     54 H           3.1298   -4.3560    5.0486 H       1  UNL1        0.0000
     55 H           3.5295   -3.1702    3.7585 H       1  UNL1        0.0000
     56 H           0.3043   -4.7579    4.5811 H       1  UNL1        0.0000
     57 H           0.8105   -4.2622    6.2169 H       1  UNL1        0.0000
     58 H          -0.7453   -2.2922    6.0317 H       1  UNL1        0.0000
     59 H          -1.6191   -3.8419    5.9247 H       1  UNL1        0.0000
     60 H          -3.1098   -1.4462    3.3308 H       1  UNL1        0.0000
     61 H          -2.2423   -0.8621    4.7938 H       1  UNL1        0.0000
     62 H          -3.4122   -2.2289    4.9205 H       1  UNL1        0.0000
     63 H          -2.5340   -3.6712    2.3016 H       1  UNL1        0.0000
     64 H          -1.2836   -4.7339    3.0145 H       1  UNL1        0.0000
     65 H          -2.8500   -4.4902    3.8701 H       1  UNL1        0.0000
     66 H           4.1966   -0.4759    1.5488 H       1  UNL1        0.0000
     67 H           5.5009    0.6755   -0.2365 H       1  UNL1        0.0000
     68 EU         -0.5568    0.0289   -0.8943 Eu      1  UNL1        0.0000
@<TRIPOS>BOND
     1     1     2    2
     2     2     3   am
     3     3     4    1
     4     3     5    1
     5     5     6    1
     6     6     7    1
     7     2     8    1
     8     8     9   ar
     9     9    10   ar
    10     8    11   ar
    11    11    12   ar
    12    12    13   ar
    13    10    13   ar
    14    13    14   ar
    15    14    15   ar
    16    15    16   ar
    17    16    17   ar
    18    12    17   ar
    19    17    18   ar
    20    18    19   ar
    21    19    20    1
    22    20    21   ar
    23    21    22   ar
    24    22    23    1
    25    23    24    1
    26    23    25    1
    27    23    26    1
    28    26    27    1
    29    27    28    1
    30    28    29    1
    31    28    30    1
    32    22    31   ar
    33    28    31    1
    34    31    32   ar
    35    32    33   ar
    36    20    33   ar
    37    19    34   ar
    38    34    35   ar
    39    16    35   ar
    40     4    36    1
    41     4    37    1
    42     4    38    1
    43     5    39    1
    44     5    40    1
    45     6    41    1
    46     6    42    1
    47     7    43    1
    48     7    44    1
    49     7    45    1
    50     9    46    1
    51    10    47    1
    52    14    48    1
    53    15    49    1
    54    24    50    1
    55    24    51    1
    56    24    52    1
    57    25    53    1
    58    25    54    1
    59    25    55    1
    60    26    56    1
    61    26    57    1
    62    27    58    1
    63    27    59    1
    64    29    60    1
    65    29    61    1
    66    29    62    1
    67    30    63    1
    68    30    64    1
    69    30    65    1
    70    34    66    1
    71    35    67    1
    72    68     1    1
    73    68    33    1
    74    68    18    1
    75    68    11    1
@<TRIPOS>MOLECULE
*****
 68 75 0 0 0
SMALL
GASTEIGER

@<TRIPOS>ATOM
      1 O          -2.1809    0.5025   -2.3686 O.2     1  UNL1        0.0000
      2 C          -1.9513    1.0486   -3.4572 C.2     1  UNL1        0.0000
      3 N          -3.0254    1.2099   -4.3166 N.am    1  UNL1        0.0000
      4 C          -4.3609    0.8958   -3.8076 C.3     1  UNL1        0.0000
      5 C          -2.9152    1.6016   -5.7172 C.3     1  UNL1        0.0000
      6 C          -2.2250    0.4736   -6.5124 C.3     1  UNL1        0.0000
      7 C          -2.1444    0.7876   -8.0003 C.3     1  UNL1        0.0000
      8 C          -0.4932    1.4296   -3.7154 C.ar    1  UNL1        0.0000
      9 C           0.1053    2.1050   -4.8160 C.ar    1  UNL1        0.0000
     10 C           1.4987    2.3521   -4.8234 C.ar    1  UNL1        0.0000
     11 N           0.3367    1.0746   -2.7146 N.ar    1  UNL1        0.0000
     12 C           1.6699    1.2898   -2.6909 C.ar    1  UNL1        0.0000
     13 C           2.3003    1.9378   -3.7476 C.ar    1  UNL1        0.0000
     14 C           3.6949    2.1449   -3.6828 C.ar    1  UNL1        0.0000
     15 C           4.4305    1.6926   -2.5606 C.ar    1  UNL1        0.0000
     16 C           3.7725    1.0350   -1.5007 C.ar    1  UNL1        0.0000
     17 C           2.3904    0.8495   -1.5897 C.ar    1  UNL1        0.0000
     18 N           1.7199    0.2301   -0.6014 N.ar    1  UNL1        0.0000
     19 C           2.2997   -0.2549    0.5130 C.ar    1  UNL1        0.0000
     20 C           1.3883   -0.9161    1.4686 C.ar    1  UNL1        0.0000
     21 N           1.8288   -1.5193    2.5993 N.ar    1  UNL1        0.0000
     22 C           0.9615   -2.1641    3.4314 C.ar    1  UNL1        0.0000
     23 C           1.5204   -2.9146    4.6346 C.3     1  UNL1        0.0000
     24 C           2.0195   -1.8831    5.6681 C.3     1  UNL1        0.0000
     25 C           2.7163   -3.7894    4.1958 C.3     1  UNL1        0.0000
     26 C           0.4555   -3.8697    5.2480 C.3     1  UNL1        0.0000
     27 C          -0.8955   -3.1803    5.3978 C.3     1  UNL1        0.0000
     28 C          -1.4843   -2.7741    4.0173 C.3     1  UNL1        0.0000
     29 C          -2.6281   -1.7705    4.2804 C.3     1  UNL1        0.0000
     30 C          -2.0657   -3.9955    3.2707 C.3     1  UNL1        0.0000
     31 C          -0.4246   -2.1365    3.1276 C.ar    1  UNL1        0.0000
     32 N          -0.8183   -1.5338    1.9731 N.ar    1  UNL1        0.0000
     33 N           0.0616   -0.9533    1.1632 N.ar    1  UNL1        0.0000
     34 C           3.6911   -0.1059    0.6663 C.ar    1  UNL1        0.0000
     35 C           4.4288    0.5480   -0.3493 C.ar    1  UNL1        0.0000
     36 H          -4.6005    1.5656   -2.9526 H       1  UNL1        0.0000
     37 H          -5.1580    1.0313   -4.5675 H       1  UNL1        0.0000
     38 H          -4.4023   -0.1603   -3.4681 H       1  UNL1        0.0000
     39 H          -3.9210    1.7229   -6.1734 H       1  UNL1        0.0000
     40 H          -2.4587    2.6010   -5.8135 H       1  UNL1        0.0000
     41 H          -1.2032    0.2750   -6.1367 H       1  UNL1        0.0000
     42 H          -2.8108   -0.4631   -6.3814 H       1  UNL1        0.0000
     43 H          -3.1631    0.9286   -8.4195 H       1  UNL1        0.0000
     44 H          -1.6599   -0.0620   -8.5277 H       1  UNL1        0.0000
     45 H          -1.5422    1.7046   -8.1681 H       1  UNL1        0.0000
     46 H          -0.4292    2.4543   -5.6716 H       1  UNL1        0.0000
     47 H           1.9435    2.8658   -5.6673 H       1  UNL1        0.0000
     48 H           4.2118    2.6483   -4.4901 H       1  UNL1        0.0000
     49 H           5.5008    1.8546   -2.5231 H       1  UNL1        0.0000
     50 H           2.8192   -1.2470    5.2306 H       1  UNL1        0.0000
     51 H           2.4376   -2.3974    6.5602 H       1  UNL1        0.0000
     52 H           1.2041   -1.2099    6.0016 H       1  UNL1        0.0000
     53 H           2.4015   -4.5238    3.4224 H       1  UNL1        0.0000
     54 H           3.1331   -4.3486    5.0613 H       1  UNL1        0.0000
     55 H           3.5316   -3.1682    3.7659 H       1  UNL1        0.0000
     56 H           0.3079   -4.7557    4.5953 H       1  UNL1        0.0000
     57 H           0.8135   -4.2522    6.2289 H       1  UNL1        0.0000
     58 H          -0.7442   -2.2846    6.0347 H       1  UNL1        0.0000
     59 H          -1.6165   -3.8357    5.9347 H       1  UNL1        0.0000
     60 H          -3.1093   -1.4526    3.3303 H       1  UNL1        0.0000
     61 H          -2.2419   -0.8614    4.7905 H       1  UNL1        0.0000
     62 H          -3.4109   -2.2284    4.9236 H       1  UNL1        0.0000
     63 H          -2.5320   -3.6820    2.3110 H       1  UNL1        0.0000
     64 H          -1.2807   -4.7406    3.0287 H       1  UNL1        0.0000
     65 H          -2.8472   -4.4939    3.8834 H       1  UNL1        0.0000
     66 H           4.1950   -0.4831    1.5473 H       1  UNL1        0.0000
     67 H           5.4991    0.6682   -0.2379 H       1  UNL1        0.0000
     68 EU         -0.5569    0.0154   -0.8989 Eu      1  UNL1        0.0000
@<TRIPOS>BOND
     1     1     2    2
     2     2     3   am
     3     3     4    1
     4     3     5    1
     5     5     6    1
     6     6     7    1
     7     2     8    1
     8     8     9   ar
     9     9    10   ar
    10     8    11   ar
    11    11    12   ar
    12    12    13   ar
    13    10    13   ar
    14    13    14   ar
    15    14    15   ar
    16    15    16   ar
    17    16    17   ar
    18    12    17   ar
    19    17    18   ar
    20    18    19   ar
    21    19    20    1
    22    20    21   ar
    23    21    22   ar
    24    22    23    1
    25    23    24    1
    26    23    25    1
    27    23    26    1
    28    26    27    1
    29    27    28    1
    30    28    29    1
    31    28    30    1
    32    22    31   ar
    33    28    31    1
    34    31    32   ar
    35    32    33   ar
    36    20    33   ar
    37    19    34   ar
    38    34    35   ar
    39    16    35   ar
    40     4    36    1
    41     4    37    1
    42     4    38    1
    43     5    39    1
    44     5    40    1
    45     6    41    1
    46     6    42    1
    47     7    43    1
    48     7    44    1
    49     7    45    1
    50     9    46    1
    51    10    47    1
    52    14    48    1
    53    15    49    1
    54    24    50    1
    55    24    51    1
    56    24    52    1
    57    25    53    1
    58    25    54    1
    59    25    55    1
    60    26    56    1
    61    26    57    1
    62    27    58    1
    63    27    59    1
    64    29    60    1
    65    29    61    1
    66    29    62    1
    67    30    63    1
    68    30    64    1
    69    30    65    1
    70    34    66    1
    71    35    67    1
    72    68     1    1
    73    68    33    1
    74    68    18    1
    75    68    11    1
@<TRIPOS>MOLECULE
*****
 68 75 0 0 0
SMALL
GASTEIGER

@<TRIPOS>ATOM
      1 O          -2.4043    0.4437   -1.9401 O.2     1  UNL1        0.0000
      2 C          -1.4510    0.6553   -3.7023 C.2     1  UNL1        0.0000
      3 N          -3.1506    1.5868   -4.6661 N.am    1  UNL1        0.0000
      4 C          -3.8057    0.9806   -3.8144 C.3     1  UNL1        0.0000
      5 C          -2.4169    1.5465   -5.7525 C.3     1  UNL1        0.0000
      6 C          -1.8639   -0.6527   -6.1403 C.3     1  UNL1        0.0000
      7 C          -2.1146    0.8294   -7.1028 C.3     1  UNL1        0.0000
      8 C          -0.4941    2.0029   -3.7853 C.ar    1  UNL1        0.0000
      9 C          -0.2153    1.0436   -5.1150 C.ar    1  UNL1        0.0000
     10 C           1.7915    1.4836   -4.5447 C.ar    1  UNL1        0.0000
     11 N           0.0854    1.3732   -2.6243 N.ar    1  UNL1        0.0000
     12 C           1.6641    0.7309   -3.6060 C.ar    1  UNL1        0.0000
     13 C           1.8022    1.6410   -3.7632 C.ar    1  UNL1        0.0000
     14 C           3.5440    2.2345   -4.5454 C.ar    1  UNL1        0.0000
     15 C           4.5165    1.1776   -2.2694 C.ar    1  UNL1        0.0000
     16 C           4.0119    1.2350   -0.8655 C.ar    1  UNL1        0.0000
     17 C           2.4399    0.2389   -2.6165 C.ar    1  UNL1        0.0000
     18 N           1.9697    1.2034   -0.3701 N.ar    1  UNL1        0.0000
     19 C           2.6003   -0.4785   -0.1378 C.ar    1  UNL1        0.0000
     20 C           1.8422   -1.2366    1.0698 C.ar    1  UNL1        0.0000
     21 N           1.8475   -0.8790    2.1692 N.ar    1  UNL1        0.0000
     22 C           0.1437   -2.3581    3.9337 C.ar    1  UNL1        0.0000
     23 C           2.2538   -3.2320    4.5878 C.3     1  UNL1        0.0000
     24 C           2.2201   -1.9202    6.3351 C.3     1  UNL1        0.0000
     25 C           3.0011   -3.7712    3.9271 C.3     1  UNL1        0.0000
     26 C           0.8790   -3.5399    4.8414 C.3     1  UNL1        0.0000
     27 C          -0.7251   -3.4730    6.2744 C.3     1  UNL1        0.0000
     28 C          -2.3483   -2.2130    4.3499 C.3     1  UNL1        0.0000
     29 C          -2.4413   -1.3405    4.5594 C.3     1  UNL1        0.0000
     30 C          -2.7245   -3.5022    2.8198 C.3     1  UNL1        0.0000
     31 C          -0.3664   -2.8537    3.3518 C.ar    1  UNL1        0.0000
     32 N          -0.9434   -2.2198    2.3417 N.ar    1  UNL1        0.0000
     33 N           0.0330   -0.5411    1.0048 N.ar    1  UNL1        0.0000
     34 C           4.2567    0.3745    1.4348 C.ar    1  UNL1        0.0000
     35 C           4.5087    1.0543    0.0343 C.ar    1  UNL1        0.0000
     36 H          -4.8543    1.8117   -2.8789 H       1  UNL1        0.0000
     37 H          -5.2071    0.8817   -4.1486 H       1  UNL1        0.0000
     38 H          -4.5298   -0.8195   -3.6887 H       1  UNL1        0.0000
     39 H          -4.7300    1.4990   -6.2373 H       1  UNL1        0.0000
     40 H          -2.4157    1.7463   -5.6031 H       1  UNL1        0.0000
     41 H          -1.0750   -0.0395   -6.0669 H       1  UNL1        0.0000
     42 H          -3.1382   -0.2678   -5.4155 H       1  UNL1        0.0000
     43 H          -2.9425    1.4793   -9.0075 H       1  UNL1        0.0000
     44 H          -2.3440   -0.4382   -8.7394 H       1  UNL1        0.0000
     45 H          -1.6271    1.8699   -8.2010 H       1  UNL1        0.0000
     46 H          -1.2660    2.0244   -5.8521 H       1  UNL1        0.0000
     47 H           2.2761    3.3471   -5.2830 H       1  UNL1        0.0000
     48 H           4.8838    1.6441   -4.6091 H       1  UNL1        0.0000
     49 H           5.0146    1.8658   -1.8100 H       1  UNL1        0.0000
     50 H           3.0876   -1.5280    5.5567 H       1  UNL1        0.0000
     51 H           2.6053   -1.9373    7.0213 H       1  UNL1        0.0000
     52 H           1.6328   -1.3857    6.4271 H       1  UNL1        0.0000
     53 H           2.4563   -3.8234    3.9163 H       1  UNL1        0.0000
     54 H           2.7973   -3.6229    4.7897 H       1  UNL1        0.0000
     55 H           4.0338   -2.8879    4.2918 H       1  UNL1        0.0000
     56 H           0.4265   -4.3875    3.8362 H       1  UNL1        0.0000
     57 H           0.7173   -3.7921    5.8966 H       1  UNL1        0.0000
     58 H          -1.7569   -2.7737    6.1591 H       1  UNL1        0.0000
     59 H          -1.8402   -3.5436    4.5075 H       1  UNL1        0.0000
     60 H          -2.9216   -0.9634    3.7658 H       1  UNL1        0.0000
     61 H          -2.1787   -1.5584    4.8134 H       1  UNL1        0.0000
     62 H          -3.6531   -2.8813    5.7843 H       1  UNL1        0.0000
     63 H          -2.0297   -4.6234    2.5991 H       1  UNL1        0.0000
     64 H          -1.2628   -4.7399    3.0903 H       1  UNL1        0.0000
     65 H          -3.3708   -4.2173    3.5018 H       1  UNL1        0.0000
     66 H           3.3203   -0.9989    1.7031 H       1  UNL1        0.0000
     67 H           5.2419    0.8660   -0.8688 H       1  UNL1        0.0000
     68 EU         -0.4178    0.7447   -0.6005 Eu      1  UNL1        0.0000
@<TRIPOS>BOND
     1     1     2    2
     2     2     3   am
     3     3     4    1
     4     3     5    1
     5     5     6    1
     6     6     7    1
     7     2     8    1
     8     8     9   ar
     9     9    10   ar
    10     8    11   ar
    11    11    12   ar
    12    12    13   ar
    13    10    13   ar
    14    13    14   ar
    15    14    15   ar
    16    15    16   ar
    17    16    17   ar
    18    12    17   ar
    19    17    18   ar
    20    18    19   ar
    21    19    20    1
    22    20    21   ar
    23    21    22   ar
    24    22    23    1
    25    23    24    1
    26    23    25    1
    27    23    26    1
    28    26    27    1
    29    27    28    1
    30    28    29    1
    31    28    30    1
    32    22    31   ar
    33    28    31    1
    34    31    32   ar
    35    32    33   ar
    36    20    33   ar
    37    19    34   ar
    38    34    35   ar
    39    16    35   ar
    40     4    36    1
    41     4    37    1
    42     4    38    1
    43     5    39    1
    44     5    40    1
    45     6    41    1
    46     6    42    1
    47     7    43    1
    48     7    44    1
    49     7    45    1
    50     9    46    1
    51    10    47    1
    52    14    48    1
    53    15    49    1
    54    24    50    1
    55    24    51    1
    56    24    52    1
    57    25    53    1
    58    25    54    1
    59    25    55    1
    60    26    56    1
    61    26    57    1
    62    27    58    1
    63    27    59    1
    64    29    60    1
    65    29    61    1
    66    29    62    1
    67    30    63    1
    68    30    64    1
    69    30    65    1
    70    34    66    1
    71    35    67    1
    72    68     1    1
    73    68    33    1
    74    68    18    1
    75    68    11    1
@<TRIPOS>MOLECULE
*****
 68 75 0 0 0
SMALL
GASTEIGER

@<TRIPOS>ATOM
      1 O          -2.1565    0.3904   -2.3214 O.2     1  UNL1        0.0000
      2 C          -1.9362    0.8922   -3.4308 C.2     1  UNL1        0.0000
      3 N          -3.0296    1.0539   -4.2606 N.am    1  UNL1        0.0000
      4 C          -4.3595    0.7774   -3.7119 C.3     1  UNL1        0.0000
      5 C          -2.9448    1.4289   -5.6600 C.3     1  UNL1        0.0000
      6 C          -2.3395    0.2627   -6.4566 C.3     1  UNL1        0.0000
      7 C          -2.2272    0.6146   -7.9302 C.3     1  UNL1        0.0000
      8 C          -0.4710    1.2442   -3.7296 C.ar    1  UNL1        0.0000
      9 C           0.1357    1.8454   -4.8728 C.ar    1  UNL1        0.0000
     10 C           1.5381    2.0762   -4.8940 C.ar    1  UNL1        0.0000
     11 N           0.3601    0.9392   -2.7137 N.ar    1  UNL1        0.0000
     12 C           1.6960    1.1479   -2.6963 C.ar    1  UNL1        0.0000
     13 C           2.3355    1.7234   -3.7890 C.ar    1  UNL1        0.0000
     14 C           3.7348    1.9244   -3.7263 C.ar    1  UNL1        0.0000
     15 C           4.4597    1.5459   -2.5686 C.ar    1  UNL1        0.0000
     16 C           3.7898    0.9619   -1.4736 C.ar    1  UNL1        0.0000
     17 C           2.4090    0.7723   -1.5649 C.ar    1  UNL1        0.0000
     18 N           1.7313    0.2137   -0.5462 N.ar    1  UNL1        0.0000
     19 C           2.2972   -0.2061    0.5993 C.ar    1  UNL1        0.0000
     20 C           1.3860   -0.8280    1.5765 C.ar    1  UNL1        0.0000
     21 N           1.8254   -1.3889    2.7314 N.ar    1  UNL1        0.0000
     22 C           0.9606   -2.0357    3.5624 C.ar    1  UNL1        0.0000
     23 C           1.5360   -2.8018    4.7464 C.3     1  UNL1        0.0000
     24 C           1.9673   -1.8261    5.8699 C.3     1  UNL1        0.0000
     25 C           2.8060   -3.5604    4.2980 C.3     1  UNL1        0.0000
     26 C           0.5125   -3.8775    5.2194 C.3     1  UNL1        0.0000
     27 C          -0.8991   -3.3189    5.4160 C.3     1  UNL1        0.0000
     28 C          -1.4882   -2.7626    4.0875 C.3     1  UNL1        0.0000
     29 C          -2.5891   -1.7425    4.4622 C.3     1  UNL1        0.0000
     30 C          -2.1173   -3.9271    3.2641 C.3     1  UNL1        0.0000
     31 C          -0.4264   -2.0661    3.2379 C.ar    1  UNL1        0.0000
     32 N          -0.8171   -1.4636    2.0767 N.ar    1  UNL1        0.0000
     33 N           0.0596   -0.8839    1.2594 N.ar    1  UNL1        0.0000
     34 C           3.6813   -0.0361    0.7638 C.ar    1  UNL1        0.0000
     35 C           4.4310    0.5565   -0.2809 C.ar    1  UNL1        0.0000
     36 H          -4.5626    1.4591   -2.8573 H       1  UNL1        0.0000
     37 H          -5.1748    0.9232   -4.4512 H       1  UNL1        0.0000
     38 H          -4.4174   -0.2752   -3.3607 H       1  UNL1        0.0000
     39 H          -3.9581    1.5922   -6.0894 H       1  UNL1        0.0000
     40 H          -2.4398    2.4029   -5.7731 H       1  UNL1        0.0000
     41 H          -1.3383   -0.0261   -6.0780 H       1  UNL1        0.0000
     42 H          -3.0045   -0.6226   -6.3380 H       1  UNL1        0.0000
     43 H          -3.2147    0.9338   -8.3254 H       1  UNL1        0.0000
     44 H          -1.8822   -0.2739   -8.4986 H       1  UNL1        0.0000
     45 H          -1.4937    1.4377   -8.0583 H       1  UNL1        0.0000
     46 H          -0.3989    2.1448   -5.7489 H       1  UNL1        0.0000
     47 H           1.9922    2.5317   -5.7675 H       1  UNL1        0.0000
     48 H           4.2683    2.3715   -4.5591 H       1  UNL1        0.0000
     49 H           5.5304    1.7083   -2.5277 H       1  UNL1        0.0000
     50 H           2.7667   -1.1401    5.5051 H       1  UNL1        0.0000
     51 H           2.3976   -2.3908    6.7269 H       1  UNL1        0.0000
     52 H           1.1325   -1.2011    6.2456 H       1  UNL1        0.0000
     53 H           2.5830   -4.2277    3.4387 H       1  UNL1        0.0000
     54 H           3.2085   -4.1743    5.1323 H       1  UNL1        0.0000
     55 H           3.6056   -2.8537    3.9830 H       1  UNL1        0.0000
     56 H           0.4477   -4.6709    4.4450 H       1  UNL1        0.0000
     57 H           0.8727   -4.3555    6.1559 H       1  UNL1        0.0000
     58 H          -0.8357   -2.5336    6.1951 H       1  UNL1        0.0000
     59 H          -1.5760   -4.1143    5.8076 H       1  UNL1        0.0000
     60 H          -3.0778   -1.2954    3.5714 H       1  UNL1        0.0000
     61 H          -2.1466   -0.9159    5.0612 H       1  UNL1        0.0000
     62 H          -3.3738   -2.2231    5.0874 H       1  UNL1        0.0000
     63 H          -2.3016   -3.6579    2.2018 H       1  UNL1        0.0000
     64 H          -1.4701   -4.8290    3.2655 H       1  UNL1        0.0000
     65 H          -3.0947   -4.2363    3.6975 H       1  UNL1        0.0000
     66 H           4.1713   -0.3537    1.6761 H       1  UNL1        0.0000
     67 H           5.4982    0.6913   -0.1565 H       1  UNL1        0.0000
     68 EU         -0.5363   -0.0183   -0.8444 Eu      1  UNL1        0.0000
@<TRIPOS>BOND
     1     1     2    2
     2     2     3   am
     3     3     4    1
     4     3     5    1
     5     5     6    1
     6     6     7    1
     7     2     8    1
     8     8     9   ar
     9     9    10   ar
    10     8    11   ar
    11    11    12   ar
    12    12    13   ar
    13    10    13   ar
    14    13    14   ar
    15    14    15   ar
    16    15    16   ar
    17    16    17   ar
    18    12    17   ar
    19    17    18   ar
    20    18    19   ar
    21    19    20    1
    22    20    21   ar
    23    21    22   ar
    24    22    23    1
    25    23    24    1
    26    23    25    1
    27    23    26    1
    28    26    27    1
    29    27    28    1
    30    28    29    1
    31    28    30    1
    32    22    31   ar
    33    28    31    1
    34    31    32   ar
    35    32    33   ar
    36    20    33   ar
    37    19    34   ar
    38    34    35   ar
    39    16    35   ar
    40     4    36    1
    41     4    37    1
    42     4    38    1
    43     5    39    1
    44     5    40    1
    45     6    41    1
    46     6    42    1
    47     7    43    1
    48     7    44    1
    49     7    45    1
    50     9    46    1
    51    10    47    1
    52    14    48    1
    53    15    49    1
    54    24    50    1
    55    24    51    1
    56    24    52    1
    57    25    53    1
    58    25    54    1
    59    25    55    1
    60    26    56    1
    61    26    57    1
    62    27    58    1
    63    27    59    1
    64    29    60    1
    65    29    61    1
    66    29    62    1
    67    30    63    1
    68    30    64    1
    69    30    65    1
    70    34    66    1
    71    35    67    1
    72    68     1    1
    73    68    33    1
    74    68    18    1
    75    68    11    1
@<TRIPOS>MOLECULE
*****
 68 75 0 0 0
SMALL
GASTEIGER

@<TRIPOS>ATOM
      1 O          -2.1652    0.3826   -2.3120 O.2     1  UNL1        0.0000
      2 C          -1.9401    0.8851   -3.4216 C.2     1  UNL1        0.0000
      3 N          -3.0263    1.0495   -4.2641 N.am    1  UNL1        0.0000
      4 C          -4.3570    0.7621   -3.7293 C.3     1  UNL1        0.0000
      5 C          -2.9357    1.4445   -5.6636 C.3     1  UNL1        0.0000
      6 C          -2.3286    0.2904   -6.4828 C.3     1  UNL1        0.0000
      7 C          -2.2216    0.6417   -7.9605 C.3     1  UNL1        0.0000
      8 C          -0.4793    1.2390   -3.7099 C.ar    1  UNL1        0.0000
      9 C           0.1230    1.8372   -4.8525 C.ar    1  UNL1        0.0000
     10 C           1.5185    2.0779   -4.8752 C.ar    1  UNL1        0.0000
     11 N           0.3514    0.9389   -2.6916 N.ar    1  UNL1        0.0000
     12 C           1.6854    1.1524   -2.6795 C.ar    1  UNL1        0.0000
     13 C           2.3187    1.7328   -3.7736 C.ar    1  UNL1        0.0000
     14 C           3.7147    1.9383   -3.7189 C.ar    1  UNL1        0.0000
     15 C           4.4468    1.5564   -2.5684 C.ar    1  UNL1        0.0000
     16 C           3.7858    0.9650   -1.4720 C.ar    1  UNL1        0.0000
     17 C           2.4041    0.7755   -1.5530 C.ar    1  UNL1        0.0000
     18 N           1.7330    0.2080   -0.5349 N.ar    1  UNL1        0.0000
     19 C           2.3121   -0.2199    0.6041 C.ar    1  UNL1        0.0000
     20 C           1.4010   -0.8508    1.5829 C.ar    1  UNL1        0.0000
     21 N           1.8420   -1.4269    2.7249 N.ar    1  UNL1        0.0000
     22 C           0.9769   -2.0763    3.5562 C.ar    1  UNL1        0.0000
     23 C           1.5390   -2.8384    4.7466 C.3     1  UNL1        0.0000
     24 C           1.9316   -1.8348    5.8524 C.3     1  UNL1        0.0000
     25 C           2.8099   -3.6050    4.3145 C.3     1  UNL1        0.0000
     26 C           0.5093   -3.8914    5.2525 C.3     1  UNL1        0.0000
     27 C          -0.8748   -3.2734    5.4485 C.3     1  UNL1        0.0000
     28 C          -1.4658   -2.7545    4.1066 C.3     1  UNL1        0.0000
     29 C          -2.5863   -1.7470    4.4410 C.3     1  UNL1        0.0000
     30 C          -2.0789   -3.9184    3.2920 C.3     1  UNL1        0.0000
     31 C          -0.4072   -2.0758    3.2437 C.ar    1  UNL1        0.0000
     32 N          -0.8030   -1.4776    2.0880 N.ar    1  UNL1        0.0000
     33 N           0.0771   -0.9067    1.2725 N.ar    1  UNL1        0.0000
     34 C           3.7005   -0.0556    0.7546 C.ar    1  UNL1        0.0000
     35 C           4.4394    0.5460   -0.2922 C.ar    1  UNL1        0.0000
     36 H          -4.5704    1.4388   -2.8722 H       1  UNL1        0.0000
     37 H          -5.1664    0.9050   -4.4750 H       1  UNL1        0.0000
     38 H          -4.4098   -0.2923   -3.3820 H       1  UNL1        0.0000
     39 H          -3.9462    1.6211   -6.0924 H       1  UNL1        0.0000
     40 H          -2.4333    2.4224   -5.7586 H       1  UNL1        0.0000
     41 H          -1.3250    0.0067   -6.1100 H       1  UNL1        0.0000
     42 H          -2.9856   -0.6012   -6.3741 H       1  UNL1        0.0000
     43 H          -3.2211    0.8986   -8.3706 H       1  UNL1        0.0000
     44 H          -1.8229   -0.2327   -8.5177 H       1  UNL1        0.0000
     45 H          -1.5318    1.5003   -8.0987 H       1  UNL1        0.0000
     46 H          -0.4076    2.1292   -5.7318 H       1  UNL1        0.0000
     47 H           1.9668    2.5312   -5.7511 H       1  UNL1        0.0000
     48 H           4.2347    2.3866   -4.5563 H       1  UNL1        0.0000
     49 H           5.5177    1.7171   -2.5395 H       1  UNL1        0.0000
     50 H           2.7035   -1.1261    5.4818 H       1  UNL1        0.0000
     51 H           2.3492   -2.3720    6.7314 H       1  UNL1        0.0000
     52 H           1.0665   -1.2301    6.1905 H       1  UNL1        0.0000
     53 H           2.5820   -4.3031    3.4797 H       1  UNL1        0.0000
     54 H           3.2269   -4.1893    5.1621 H       1  UNL1        0.0000
     55 H           3.5992   -2.9028    3.9659 H       1  UNL1        0.0000
     56 H           0.4141   -4.7154    4.5126 H       1  UNL1        0.0000
     57 H           0.8714   -4.3447    6.2006 H       1  UNL1        0.0000
     58 H          -0.7647   -2.4443    6.1751 H       1  UNL1        0.0000
     59 H          -1.5762   -4.0036    5.9098 H       1  UNL1        0.0000
     60 H          -3.0644   -1.3545    3.5178 H       1  UNL1        0.0000
     61 H          -2.1745   -0.8842    5.0088 H       1  UNL1        0.0000
     62 H          -3.3743   -2.2279    5.0603 H       1  UNL1        0.0000
     63 H          -2.4816   -3.5536    2.3214 H       1  UNL1        0.0000
     64 H          -1.3306   -4.7059    3.0705 H       1  UNL1        0.0000
     65 H          -2.9211   -4.3844    3.8480 H       1  UNL1        0.0000
     66 H           4.2028   -0.3855    1.6550 H       1  UNL1        0.0000
     67 H           5.5094    0.6748   -0.1844 H       1  UNL1        0.0000
     68 EU         -0.5400   -0.0307   -0.8271 Eu      1  UNL1        0.0000
@<TRIPOS>BOND
     1     1     2    2
     2     2     3   am
     3     3     4    1
     4     3     5    1
     5     5     6    1
     6     6     7    1
     7     2     8    1
     8     8     9   ar
     9     9    10   ar
    10     8    11   ar
    11    11    12   ar
    12    12    13   ar
    13    10    13   ar
    14    13    14   ar
    15    14    15   ar
    16    15    16   ar
    17    16    17   ar
    18    12    17   ar
    19    17    18   ar
    20    18    19   ar
    21    19    20    1
    22    20    21   ar
    23    21    22   ar
    24    22    23    1
    25    23    24    1
    26    23    25    1
    27    23    26    1
    28    26    27    1
    29    27    28    1
    30    28    29    1
    31    28    30    1
    32    22    31   ar
    33    28    31    1
    34    31    32   ar
    35    32    33   ar
    36    20    33   ar
    37    19    34   ar
    38    34    35   ar
    39    16    35   ar
    40     4    36    1
    41     4    37    1
    42     4    38    1
    43     5    39    1
    44     5    40    1
    45     6    41    1
    46     6    42    1
    47     7    43    1
    48     7    44    1
    49     7    45    1
    50     9    46    1
    51    10    47    1
    52    14    48    1
    53    15    49    1
    54    24    50    1
    55    24    51    1
    56    24    52    1
    57    25    53    1
    58    25    54    1
    59    25    55    1
    60    26    56    1
    61    26    57    1
    62    27    58    1
    63    27    59    1
    64    29    60    1
    65    29    61    1
    66    29    62    1
    67    30    63    1
    68    30    64    1
    69    30    65    1
    70    34    66    1
    71    35    67    1
    72    68     1    1
    73    68    33    1
    74    68    18    1
    75    68    11    1
@<TRIPOS>MOLECULE
*****
 68 75 0 0 0
SMALL
GASTEIGER

@<TRIPOS>ATOM
      1 O          -2.1694    0.3728   -2.3196 O.2     1  UNL1        0.0000
      2 C          -1.9442    0.8803   -3.4279 C.2     1  UNL1        0.0000
      3 N          -3.0292    1.0448   -4.2725 N.am    1  UNL1        0.0000
      4 C          -4.3607    0.7492   -3.7424 C.3     1  UNL1        0.0000
      5 C          -2.9374    1.4506   -5.6692 C.3     1  UNL1        0.0000
      6 C          -2.3183    0.3091   -6.4986 C.3     1  UNL1        0.0000
      7 C          -2.2193    0.6717   -7.9747 C.3     1  UNL1        0.0000
      8 C          -0.4845    1.2389   -3.7092 C.ar    1  UNL1        0.0000
      9 C           0.1169    1.8434   -4.8490 C.ar    1  UNL1        0.0000
     10 C           1.5112    2.0857   -4.8706 C.ar    1  UNL1        0.0000
     11 N           0.3466    0.9322   -2.6944 N.ar    1  UNL1        0.0000
     12 C           1.6806    1.1461   -2.6805 C.ar    1  UNL1        0.0000
     13 C           2.3124    1.7340   -3.7725 C.ar    1  UNL1        0.0000
     14 C           3.7076    1.9418   -3.7177 C.ar    1  UNL1        0.0000
     15 C           4.4423    1.5545   -2.5715 C.ar    1  UNL1        0.0000
     16 C           3.7828    0.9555   -1.4776 C.ar    1  UNL1        0.0000
     17 C           2.4008    0.7647   -1.5581 C.ar    1  UNL1        0.0000
     18 N           1.7310    0.1926   -0.5410 N.ar    1  UNL1        0.0000
     19 C           2.3108   -0.2382    0.5955 C.ar    1  UNL1        0.0000
     20 C           1.4006   -0.8690    1.5730 C.ar    1  UNL1        0.0000
     21 N           1.8423   -1.4439    2.7170 N.ar    1  UNL1        0.0000
     22 C           0.9791   -2.0885    3.5533 C.ar    1  UNL1        0.0000
     23 C           1.5397   -2.8412    4.7521 C.3     1  UNL1        0.0000
     24 C           1.9392   -1.8234    5.8417 C.3     1  UNL1        0.0000
     25 C           2.8035   -3.6257    4.3317 C.3     1  UNL1        0.0000
     26 C           0.5056   -3.8791    5.2787 C.3     1  UNL1        0.0000
     27 C          -0.8718   -3.2486    5.4645 C.3     1  UNL1        0.0000
     28 C          -1.4626   -2.7542    4.1140 C.3     1  UNL1        0.0000
     29 C          -2.5920   -1.7522    4.4349 C.3     1  UNL1        0.0000
     30 C          -2.0618   -3.9314    3.3115 C.3     1  UNL1        0.0000
     31 C          -0.4057   -2.0840    3.2432 C.ar    1  UNL1        0.0000
     32 N          -0.8019   -1.4938    2.0838 N.ar    1  UNL1        0.0000
     33 N           0.0757   -0.9255    1.2646 N.ar    1  UNL1        0.0000
     34 C           3.7010   -0.0753    0.7448 C.ar    1  UNL1        0.0000
     35 C           4.4382    0.5307   -0.3007 C.ar    1  UNL1        0.0000
     36 H          -4.5790    1.4198   -2.8832 H       1  UNL1        0.0000
     37 H          -5.1678    0.8930   -4.4907 H       1  UNL1        0.0000
     38 H          -4.4098   -0.3076   -3.4028 H       1  UNL1        0.0000
     39 H          -3.9476    1.6230   -6.0997 H       1  UNL1        0.0000
     40 H          -2.4418    2.4333   -5.7559 H       1  UNL1        0.0000
     41 H          -1.3107    0.0352   -6.1305 H       1  UNL1        0.0000
     42 H          -2.9626   -0.5921   -6.3952 H       1  UNL1        0.0000
     43 H          -3.2247    0.9067   -8.3836 H       1  UNL1        0.0000
     44 H          -1.8001   -0.1898   -8.5370 H       1  UNL1        0.0000
     45 H          -1.5504    1.5472   -8.1094 H       1  UNL1        0.0000
     46 H          -0.4149    2.1428   -5.7262 H       1  UNL1        0.0000
     47 H           1.9584    2.5451   -5.7445 H       1  UNL1        0.0000
     48 H           4.2254    2.3973   -4.5531 H       1  UNL1        0.0000
     49 H           5.5123    1.7171   -2.5422 H       1  UNL1        0.0000
     50 H           2.7168   -1.1272    5.4606 H       1  UNL1        0.0000
     51 H           2.3493   -2.3492    6.7311 H       1  UNL1        0.0000
     52 H           1.0780   -1.2059    6.1669 H       1  UNL1        0.0000
     53 H           2.5684   -4.3414    3.5141 H       1  UNL1        0.0000
     54 H           3.2185   -4.1951    5.1910 H       1  UNL1        0.0000
     55 H           3.5970   -2.9376    3.9662 H       1  UNL1        0.0000
     56 H           0.4019   -4.7176    4.5564 H       1  UNL1        0.0000
     57 H           0.8659   -4.3166    6.2351 H       1  UNL1        0.0000
     58 H          -0.7563   -2.4049    6.1734 H       1  UNL1        0.0000
     59 H          -1.5763   -3.9640    5.9433 H       1  UNL1        0.0000
     60 H          -3.0719   -1.3760    3.5059 H       1  UNL1        0.0000
     61 H          -2.1893   -0.8778    4.9914 H       1  UNL1        0.0000
     62 H          -3.3770   -2.2327    5.0584 H       1  UNL1        0.0000
     63 H          -2.5176   -3.5688    2.3637 H       1  UNL1        0.0000
     64 H          -1.2887   -4.6810    3.0459 H       1  UNL1        0.0000
     65 H          -2.8590   -4.4392    3.8955 H       1  UNL1        0.0000
     66 H           4.2047   -0.4081    1.6431 H       1  UNL1        0.0000
     67 H           5.5087    0.6595   -0.1939 H       1  UNL1        0.0000
     68 EU         -0.5438   -0.0450   -0.8327 Eu      1  UNL1        0.0000
@<TRIPOS>BOND
     1     1     2    2
     2     2     3   am
     3     3     4    1
     4     3     5    1
     5     5     6    1
     6     6     7    1
     7     2     8    1
     8     8     9   ar
     9     9    10   ar
    10     8    11   ar
    11    11    12   ar
    12    12    13   ar
    13    10    13   ar
    14    13    14   ar
    15    14    15   ar
    16    15    16   ar
    17    16    17   ar
    18    12    17   ar
    19    17    18   ar
    20    18    19   ar
    21    19    20    1
    22    20    21   ar
    23    21    22   ar
    24    22    23    1
    25    23    24    1
    26    23    25    1
    27    23    26    1
    28    26    27    1
    29    27    28    1
    30    28    29    1
    31    28    30    1
    32    22    31   ar
    33    28    31    1
    34    31    32   ar
    35    32    33   ar
    36    20    33   ar
    37    19    34   ar
    38    34    35   ar
    39    16    35   ar
    40     4    36    1
    41     4    37    1
    42     4    38    1
    43     5    39    1
    44     5    40    1
    45     6    41    1
    46     6    42    1
    47     7    43    1
    48     7    44    1
    49     7    45    1
    50     9    46    1
    51    10    47    1
    52    14    48    1
    53    15    49    1
    54    24    50    1
    55    24    51    1
    56    24    52    1
    57    25    53    1
    58    25    54    1
    59    25    55    1
    60    26    56    1
    61    26    57    1
    62    27    58    1
    63    27    59    1
    64    29    60    1
    65    29    61    1
    66    29    62    1
    67    30    63    1
    68    30    64    1
    69    30    65    1
    70    34    66    1
    71    35    67    1
    72    68     1    1
    73    68    33    1
    74    68    18    1
    75    68    11    1
@<TRIPOS>MOLECULE
*****
 68 75 0 0 0
SMALL
GASTEIGER

@<TRIPOS>ATOM
      1 O          -2.1711    0.3645   -2.3254 O.2     1  UNL1        0.0000
      2 C          -1.9462    0.8757   -3.4321 C.2     1  UNL1        0.0000
      3 N          -3.0303    1.0406   -4.2782 N.am    1  UNL1        0.0000
      4 C          -4.3613    0.7367   -3.7516 C.3     1  UNL1        0.0000
      5 C          -2.9382    1.4551   -5.6724 C.3     1  UNL1        0.0000
      6 C          -2.3110    0.3238   -6.5102 C.3     1  UNL1        0.0000
      7 C          -2.2174    0.6984   -7.9840 C.3     1  UNL1        0.0000
      8 C          -0.4866    1.2369   -3.7127 C.ar    1  UNL1        0.0000
      9 C           0.1141    1.8513   -4.8479 C.ar    1  UNL1        0.0000
     10 C           1.5078    2.0931   -4.8687 C.ar    1  UNL1        0.0000
     11 N           0.3449    0.9263   -2.6973 N.ar    1  UNL1        0.0000
     12 C           1.6787    1.1412   -2.6838 C.ar    1  UNL1        0.0000
     13 C           2.3096    1.7349   -3.7726 C.ar    1  UNL1        0.0000
     14 C           3.7044    1.9443   -3.7172 C.ar    1  UNL1        0.0000
     15 C           4.4404    1.5507   -2.5719 C.ar    1  UNL1        0.0000
     16 C           3.7818    0.9471   -1.4810 C.ar    1  UNL1        0.0000
     17 C           2.4001    0.7554   -1.5620 C.ar    1  UNL1        0.0000
     18 N           1.7298    0.1795   -0.5474 N.ar    1  UNL1        0.0000
     19 C           2.3095   -0.2533    0.5882 C.ar    1  UNL1        0.0000
     20 C           1.4001   -0.8847    1.5662 C.ar    1  UNL1        0.0000
     21 N           1.8427   -1.4561    2.7124 N.ar    1  UNL1        0.0000
     22 C           0.9798   -2.0971    3.5520 C.ar    1  UNL1        0.0000
     23 C           1.5407   -2.8407    4.7573 C.3     1  UNL1        0.0000
     24 C           1.9492   -1.8117    5.8328 C.3     1  UNL1        0.0000
     25 C           2.7984   -3.6381    4.3430 C.3     1  UNL1        0.0000
     26 C           0.5043   -3.8669    5.3013 C.3     1  UNL1        0.0000
     27 C          -0.8705   -3.2303    5.4777 C.3     1  UNL1        0.0000
     28 C          -1.4611   -2.7571    4.1195 C.3     1  UNL1        0.0000
     29 C          -2.5967   -1.7580    4.4277 C.3     1  UNL1        0.0000
     30 C          -2.0519   -3.9468    3.3297 C.3     1  UNL1        0.0000
     31 C          -0.4054   -2.0932    3.2425 C.ar    1  UNL1        0.0000
     32 N          -0.8020   -1.5085    2.0800 N.ar    1  UNL1        0.0000
     33 N           0.0751   -0.9416    1.2588 N.ar    1  UNL1        0.0000
     34 C           3.7002   -0.0909    0.7375 C.ar    1  UNL1        0.0000
     35 C           4.4378    0.5181   -0.3064 C.ar    1  UNL1        0.0000
     36 H          -4.5835    1.4015   -2.8890 H       1  UNL1        0.0000
     37 H          -5.1679    0.8815   -4.5002 H       1  UNL1        0.0000
     38 H          -4.4069   -0.3223   -3.4182 H       1  UNL1        0.0000
     39 H          -3.9490    1.6241   -6.1032 H       1  UNL1        0.0000
     40 H          -2.4483    2.4412   -5.7520 H       1  UNL1        0.0000
     41 H          -1.3006    0.0555   -6.1458 H       1  UNL1        0.0000
     42 H          -2.9472   -0.5837   -6.4130 H       1  UNL1        0.0000
     43 H          -3.2260    0.9237   -8.3907 H       1  UNL1        0.0000
     44 H          -1.7879   -0.1533   -8.5534 H       1  UNL1        0.0000
     45 H          -1.5600    1.5835   -8.1134 H       1  UNL1        0.0000
     46 H          -0.4189    2.1557   -5.7218 H       1  UNL1        0.0000
     47 H           1.9541    2.5583   -5.7394 H       1  UNL1        0.0000
     48 H           4.2218    2.4041   -4.5502 H       1  UNL1        0.0000
     49 H           5.5096    1.7157   -2.5429 H       1  UNL1        0.0000
     50 H           2.7303   -1.1254    5.4409 H       1  UNL1        0.0000
     51 H           2.3580   -2.3280    6.7282 H       1  UNL1        0.0000
     52 H           1.0922   -1.1849    6.1514 H       1  UNL1        0.0000
     53 H           2.5557   -4.3648    3.5373 H       1  UNL1        0.0000
     54 H           3.2130   -4.1977    5.2091 H       1  UNL1        0.0000
     55 H           3.5945   -2.9603    3.9646 H       1  UNL1        0.0000
     56 H           0.3968   -4.7171    4.5936 H       1  UNL1        0.0000
     57 H           0.8642   -4.2901    6.2645 H       1  UNL1        0.0000
     58 H          -0.7524   -2.3747    6.1722 H       1  UNL1        0.0000
     59 H          -1.5761   -3.9362    5.9688 H       1  UNL1        0.0000
     60 H          -3.0777   -1.3954    3.4940 H       1  UNL1        0.0000
     61 H          -2.2001   -0.8748    4.9747 H       1  UNL1        0.0000
     62 H          -3.3796   -2.2361    5.0556 H       1  UNL1        0.0000
     63 H          -2.5181   -3.5957    2.3828 H       1  UNL1        0.0000
     64 H          -1.2710   -4.6881    3.0630 H       1  UNL1        0.0000
     65 H          -2.8381   -4.4608    3.9230 H       1  UNL1        0.0000
     66 H           4.2042   -0.4259    1.6347 H       1  UNL1        0.0000
     67 H           5.5079    0.6462   -0.1995 H       1  UNL1        0.0000
     68 EU         -0.5455   -0.0571   -0.8383 Eu      1  UNL1        0.0000
@<TRIPOS>BOND
     1     1     2    2
     2     2     3   am
     3     3     4    1
     4     3     5    1
     5     5     6    1
     6     6     7    1
     7     2     8    1
     8     8     9   ar
     9     9    10   ar
    10     8    11   ar
    11    11    12   ar
    12    12    13   ar
    13    10    13   ar
    14    13    14   ar
    15    14    15   ar
    16    15    16   ar
    17    16    17   ar
    18    12    17   ar
    19    17    18   ar
    20    18    19   ar
    21    19    20    1
    22    20    21   ar
    23    21    22   ar
    24    22    23    1
    25    23    24    1
    26    23    25    1
    27    23    26    1
    28    26    27    1
    29    27    28    1
    30    28    29    1
    31    28    30    1
    32    22    31   ar
    33    28    31    1
    34    31    32   ar
    35    32    33   ar
    36    20    33   ar
    37    19    34   ar
    38    34    35   ar
    39    16    35   ar
    40     4    36    1
    41     4    37    1
    42     4    38    1
    43     5    39    1
    44     5    40    1
    45     6    41    1
    46     6    42    1
    47     7    43    1
    48     7    44    1
    49     7    45    1
    50     9    46    1
    51    10    47    1
    52    14    48    1
    53    15    49    1
    54    24    50    1
    55    24    51    1
    56    24    52    1
    57    25    53    1
    58    25    54    1
    59    25    55    1
    60    26    56    1
    61    26    57    1
    62    27    58    1
    63    27    59    1
    64    29    60    1
    65    29    61    1
    66    29    62    1
    67    30    63    1
    68    30    64    1
    69    30    65    1
    70    34    66    1
    71    35    67    1
    72    68     1    1
    73    68    33    1
    74    68    18    1
    75    68    11    1
@<TRIPOS>MOLECULE
*****
 68 75 0 0 0
SMALL
GASTEIGER

@<TRIPOS>ATOM
      1 O          -2.1730    0.3552   -2.3304 O.2     1  UNL1        0.0000
      2 C          -1.9479    0.8711   -3.4351 C.2     1  UNL1        0.0000
      3 N          -3.0308    1.0364   -4.2822 N.am    1  UNL1        0.0000
      4 C          -4.3615    0.7250   -3.7598 C.3     1  UNL1        0.0000
      5 C          -2.9386    1.4599   -5.6744 C.3     1  UNL1        0.0000
      6 C          -2.3059    0.3376   -6.5202 C.3     1  UNL1        0.0000
      7 C          -2.2154    0.7238   -7.9915 C.3     1  UNL1        0.0000
      8 C          -0.4889    1.2360   -3.7129 C.ar    1  UNL1        0.0000
      9 C           0.1113    1.8569   -4.8447 C.ar    1  UNL1        0.0000
     10 C           1.5050    2.1003   -4.8647 C.ar    1  UNL1        0.0000
     11 N           0.3420    0.9224   -2.6985 N.ar    1  UNL1        0.0000
     12 C           1.6755    1.1385   -2.6843 C.ar    1  UNL1        0.0000
     13 C           2.3066    1.7378   -3.7695 C.ar    1  UNL1        0.0000
     14 C           3.7011    1.9456   -3.7150 C.ar    1  UNL1        0.0000
     15 C           4.4364    1.5476   -2.5726 C.ar    1  UNL1        0.0000
     16 C           3.7785    0.9391   -1.4834 C.ar    1  UNL1        0.0000
     17 C           2.3968    0.7477   -1.5647 C.ar    1  UNL1        0.0000
     18 N           1.7276    0.1683   -0.5509 N.ar    1  UNL1        0.0000
     19 C           2.3084   -0.2671    0.5831 C.ar    1  UNL1        0.0000
     20 C           1.3996   -0.8999    1.5610 C.ar    1  UNL1        0.0000
     21 N           1.8425   -1.4679    2.7083 N.ar    1  UNL1        0.0000
     22 C           0.9803   -2.1055    3.5508 C.ar    1  UNL1        0.0000
     23 C           1.5419   -2.8397    4.7619 C.3     1  UNL1        0.0000
     24 C           1.9583   -1.8007    5.8248 C.3     1  UNL1        0.0000
     25 C           2.7943   -3.6473    4.3519 C.3     1  UNL1        0.0000
     26 C           0.5037   -3.8554    5.3216 C.3     1  UNL1        0.0000
     27 C          -0.8696   -3.2141    5.4890 C.3     1  UNL1        0.0000
     28 C          -1.4600   -2.7607    4.1243 C.3     1  UNL1        0.0000
     29 C          -2.6002   -1.7627    4.4196 C.3     1  UNL1        0.0000
     30 C          -2.0447   -3.9614    3.3471 C.3     1  UNL1        0.0000
     31 C          -0.4050   -2.1035    3.2415 C.ar    1  UNL1        0.0000
     32 N          -0.8018   -1.5241    2.0761 N.ar    1  UNL1        0.0000
     33 N           0.0742   -0.9579    1.2535 N.ar    1  UNL1        0.0000
     34 C           3.6989   -0.1063    0.7316 C.ar    1  UNL1        0.0000
     35 C           4.4352    0.5061   -0.3108 C.ar    1  UNL1        0.0000
     36 H          -4.5874    1.3844   -2.8940 H       1  UNL1        0.0000
     37 H          -5.1674    0.8710   -4.5090 H       1  UNL1        0.0000
     38 H          -4.4038   -0.3359   -3.4323 H       1  UNL1        0.0000
     39 H          -3.9492    1.6288   -6.1055 H       1  UNL1        0.0000
     40 H          -2.4524    2.4484   -5.7472 H       1  UNL1        0.0000
     41 H          -1.2938    0.0721   -6.1587 H       1  UNL1        0.0000
     42 H          -2.9366   -0.5743   -6.4295 H       1  UNL1        0.0000
     43 H          -3.2258    0.9440   -8.3965 H       1  UNL1        0.0000
     44 H          -1.7794   -0.1201   -8.5677 H       1  UNL1        0.0000
     45 H          -1.5653    1.6150   -8.1150 H       1  UNL1        0.0000
     46 H          -0.4221    2.1658   -5.7170 H       1  UNL1        0.0000
     47 H           1.9500    2.5704   -5.7328 H       1  UNL1        0.0000
     48 H           4.2179    2.4096   -4.5461 H       1  UNL1        0.0000
     49 H           5.5065    1.7113   -2.5433 H       1  UNL1        0.0000
     50 H           2.7412   -1.1222    5.4228 H       1  UNL1        0.0000
     51 H           2.3680   -2.3087    6.7245 H       1  UNL1        0.0000
     52 H           1.1047   -1.1671    6.1391 H       1  UNL1        0.0000
     53 H           2.5451   -4.3824    3.5560 H       1  UNL1        0.0000
     54 H           3.2095   -4.1986    5.2231 H       1  UNL1        0.0000
     55 H           3.5919   -2.9776    3.9625 H       1  UNL1        0.0000
     56 H           0.3937   -4.7158    4.6269 H       1  UNL1        0.0000
     57 H           0.8635   -4.2655    6.2904 H       1  UNL1        0.0000
     58 H          -0.7497   -2.3479    6.1702 H       1  UNL1        0.0000
     59 H          -1.5758   -3.9118    5.9908 H       1  UNL1        0.0000
     60 H          -3.0819   -1.4131    3.4813 H       1  UNL1        0.0000
     61 H          -2.2085   -0.8715    4.9570 H       1  UNL1        0.0000
     62 H          -3.3819   -2.2372    5.0519 H       1  UNL1        0.0000
     63 H          -2.5131   -3.6225    2.3968 H       1  UNL1        0.0000
     64 H          -1.2599   -4.7008    3.0871 H       1  UNL1        0.0000
     65 H          -2.8274   -4.4739    3.9464 H       1  UNL1        0.0000
     66 H           4.2036   -0.4437    1.6277 H       1  UNL1        0.0000
     67 H           5.5050    0.6341   -0.2045 H       1  UNL1        0.0000
     68 EU         -0.5476   -0.0693   -0.8429 Eu      1  UNL1        0.0000
@<TRIPOS>BOND
     1     1     2    2
     2     2     3   am
     3     3     4    1
     4     3     5    1
     5     5     6    1
     6     6     7    1
     7     2     8    1
     8     8     9   ar
     9     9    10   ar
    10     8    11   ar
    11    11    12   ar
    12    12    13   ar
    13    10    13   ar
    14    13    14   ar
    15    14    15   ar
    16    15    16   ar
    17    16    17   ar
    18    12    17   ar
    19    17    18   ar
    20    18    19   ar
    21    19    20    1
    22    20    21   ar
    23    21    22   ar
    24    22    23    1
    25    23    24    1
    26    23    25    1
    27    23    26    1
    28    26    27    1
    29    27    28    1
    30    28    29    1
    31    28    30    1
    32    22    31   ar
    33    28    31    1
    34    31    32   ar
    35    32    33   ar
    36    20    33   ar
    37    19    34   ar
    38    34    35   ar
    39    16    35   ar
    40     4    36    1
    41     4    37    1
    42     4    38    1
    43     5    39    1
    44     5    40    1
    45     6    41    1
    46     6    42    1
    47     7    43    1
    48     7    44    1
    49     7    45    1
    50     9    46    1
    51    10    47    1
    52    14    48    1
    53    15    49    1
    54    24    50    1
    55    24    51    1
    56    24    52    1
    57    25    53    1
    58    25    54    1
    59    25    55    1
    60    26    56    1
    61    26    57    1
    62    27    58    1
    63    27    59    1
    64    29    60    1
    65    29    61    1
    66    29    62    1
    67    30    63    1
    68    30    64    1
    69    30    65    1
    70    34    66    1
    71    35    67    1
    72    68     1    1
    73    68    33    1
    74    68    18    1
    75    68    11    1
@<TRIPOS>MOLECULE
*****
 68 75 0 0 0
SMALL
GASTEIGER

@<TRIPOS>ATOM
      1 O          -2.1733    0.3538   -2.3313 O.2     1  UNL1        0.0000
      2 C          -1.9481    0.8700   -3.4352 C.2     1  UNL1        0.0000
      3 N          -3.0309    1.0354   -4.2831 N.am    1  UNL1        0.0000
      4 C          -4.3616    0.7234   -3.7607 C.3     1  UNL1        0.0000
      5 C          -2.9388    1.4605   -5.6744 C.3     1  UNL1        0.0000
      6 C          -2.3052    0.3398   -6.5220 C.3     1  UNL1        0.0000
      7 C          -2.2150    0.7277   -7.9928 C.3     1  UNL1        0.0000
      8 C          -0.4897    1.2358   -3.7131 C.ar    1  UNL1        0.0000
      9 C           0.1106    1.8577   -4.8441 C.ar    1  UNL1        0.0000
     10 C           1.5037    2.1016   -4.8637 C.ar    1  UNL1        0.0000
     11 N           0.3420    0.9211   -2.6987 N.ar    1  UNL1        0.0000
     12 C           1.6753    1.1382   -2.6841 C.ar    1  UNL1        0.0000
     13 C           2.3058    1.7371   -3.7702 C.ar    1  UNL1        0.0000
     14 C           3.7009    1.9460   -3.7146 C.ar    1  UNL1        0.0000
     15 C           4.4360    1.5473   -2.5724 C.ar    1  UNL1        0.0000
     16 C           3.7783    0.9385   -1.4834 C.ar    1  UNL1        0.0000
     17 C           2.3968    0.7469   -1.5647 C.ar    1  UNL1        0.0000
     18 N           1.7275    0.1674   -0.5518 N.ar    1  UNL1        0.0000
     19 C           2.3085   -0.2691    0.5821 C.ar    1  UNL1        0.0000
     20 C           1.4000   -0.9024    1.5598 C.ar    1  UNL1        0.0000
     21 N           1.8427   -1.4694    2.7072 N.ar    1  UNL1        0.0000
     22 C           0.9803   -2.1074    3.5499 C.ar    1  UNL1        0.0000
     23 C           1.5422   -2.8394    4.7623 C.3     1  UNL1        0.0000
     24 C           1.9597   -1.7990    5.8235 C.3     1  UNL1        0.0000
     25 C           2.7938   -3.6484    4.3532 C.3     1  UNL1        0.0000
     26 C           0.5037   -3.8537    5.3248 C.3     1  UNL1        0.0000
     27 C          -0.8694   -3.2117    5.4905 C.3     1  UNL1        0.0000
     28 C          -1.4597   -2.7613    4.1249 C.3     1  UNL1        0.0000
     29 C          -2.6006   -1.7633    4.4182 C.3     1  UNL1        0.0000
     30 C          -2.0437   -3.9638    3.3498 C.3     1  UNL1        0.0000
     31 C          -0.4047   -2.1044    3.2408 C.ar    1  UNL1        0.0000
     32 N          -0.8019   -1.5270    2.0753 N.ar    1  UNL1        0.0000
     33 N           0.0748   -0.9594    1.2522 N.ar    1  UNL1        0.0000
     34 C           3.6987   -0.1078    0.7309 C.ar    1  UNL1        0.0000
     35 C           4.4352    0.5049   -0.3113 C.ar    1  UNL1        0.0000
     36 H          -4.5881    1.3816   -2.8945 H       1  UNL1        0.0000
     37 H          -5.1674    0.8693   -4.5101 H       1  UNL1        0.0000
     38 H          -4.4033   -0.3380   -3.4346 H       1  UNL1        0.0000
     39 H          -3.9498    1.6286   -6.1051 H       1  UNL1        0.0000
     40 H          -2.4530    2.4496   -5.7464 H       1  UNL1        0.0000
     41 H          -1.2931    0.0745   -6.1606 H       1  UNL1        0.0000
     42 H          -2.9353   -0.5728   -6.4320 H       1  UNL1        0.0000
     43 H          -3.2257    0.9475   -8.3972 H       1  UNL1        0.0000
     44 H          -1.7782   -0.1150   -8.5698 H       1  UNL1        0.0000
     45 H          -1.5660    1.6198   -8.1149 H       1  UNL1        0.0000
     46 H          -0.4222    2.1670   -5.7165 H       1  UNL1        0.0000
     47 H           1.9500    2.5718   -5.7318 H       1  UNL1        0.0000
     48 H           4.2174    2.4104   -4.5454 H       1  UNL1        0.0000
     49 H           5.5062    1.7109   -2.5430 H       1  UNL1        0.0000
     50 H           2.7428   -1.1216    5.4199 H       1  UNL1        0.0000
     51 H           2.3696   -2.3056    6.7238 H       1  UNL1        0.0000
     52 H           1.1066   -1.1644    6.1372 H       1  UNL1        0.0000
     53 H           2.5436   -4.3850    3.5588 H       1  UNL1        0.0000
     54 H           3.2091   -4.1987    5.2251 H       1  UNL1        0.0000
     55 H           3.5916   -2.9801    3.9623 H       1  UNL1        0.0000
     56 H           0.3933   -4.7155    4.6321 H       1  UNL1        0.0000
     57 H           0.8635   -4.2616    6.2944 H       1  UNL1        0.0000
     58 H          -0.7493   -2.3438    6.1699 H       1  UNL1        0.0000
     59 H          -1.5757   -3.9081    5.9941 H       1  UNL1        0.0000
     60 H          -3.0825   -1.4159    3.4792 H       1  UNL1        0.0000
     61 H          -2.2096   -0.8710    4.9540 H       1  UNL1        0.0000
     62 H          -3.3821   -2.2373    5.0513 H       1  UNL1        0.0000
     63 H          -2.5122   -3.6268    2.3989 H       1  UNL1        0.0000
     64 H          -1.2583   -4.7031    3.0912 H       1  UNL1        0.0000
     65 H          -2.8259   -4.4757    3.9501 H       1  UNL1        0.0000
     66 H           4.2034   -0.4462    1.6267 H       1  UNL1        0.0000
     67 H           5.5052    0.6327   -0.2048 H       1  UNL1        0.0000
     68 EU         -0.5480   -0.0709   -0.8435 Eu      1  UNL1        0.0000
@<TRIPOS>BOND
     1     1     2    2
     2     2     3   am
     3     3     4    1
     4     3     5    1
     5     5     6    1
     6     6     7    1
     7     2     8    1
     8     8     9   ar
     9     9    10   ar
    10     8    11   ar
    11    11    12   ar
    12    12    13   ar
    13    10    13   ar
    14    13    14   ar
    15    14    15   ar
    16    15    16   ar
    17    16    17   ar
    18    12    17   ar
    19    17    18   ar
    20    18    19   ar
    21    19    20    1
    22    20    21   ar
    23    21    22   ar
    24    22    23    1
    25    23    24    1
    26    23    25    1
    27    23    26    1
    28    26    27    1
    29    27    28    1
    30    28    29    1
    31    28    30    1
    32    22    31   ar
    33    28    31    1
    34    31    32   ar
    35    32    33   ar
    36    20    33   ar
    37    19    34   ar
    38    34    35   ar
    39    16    35   ar
    40     4    36    1
    41     4    37    1
    42     4    38    1
    43     5    39    1
    44     5    40    1
    45     6    41    1
    46     6    42    1
    47     7    43    1
    48     7    44    1
    49     7    45    1
    50     9    46    1
    51    10    47    1
    52    14    48    1
    53    15    49    1
    54    24    50    1
    55    24    51    1
    56    24    52    1
    57    25    53    1
    58    25    54    1
    59    25    55    1
    60    26    56    1
    61    26    57    1
    62    27    58    1
    63    27    59    1
    64    29    60    1
    65    29    61    1
    66    29    62    1
    67    30    63    1
    68    30    64    1
    69    30    65    1
    70    34    66    1
    71    35    67    1
    72    68     1    1
    73    68    33    1
    74    68    18    1
    75    68    11    1
@<TRIPOS>MOLECULE
*****
 68 75 0 0 0
SMALL
GASTEIGER

@<TRIPOS>ATOM
      1 O          -2.1749    0.3446   -2.3374 O.2     1  UNL1        0.0000
      2 C          -1.9499    0.8649   -3.4401 C.2     1  UNL1        0.0000
      3 N          -3.0325    1.0308   -4.2881 N.am    1  UNL1        0.0000
      4 C          -4.3625    0.7113   -3.7690 C.3     1  UNL1        0.0000
      5 C          -2.9405    1.4650   -5.6770 C.3     1  UNL1        0.0000
      6 C          -2.3021    0.3531   -6.5323 C.3     1  UNL1        0.0000
      7 C          -2.2131    0.7533   -8.0001 C.3     1  UNL1        0.0000
      8 C          -0.4918    1.2339   -3.7145 C.ar    1  UNL1        0.0000
      9 C           0.1075    1.8624   -4.8425 C.ar    1  UNL1        0.0000
     10 C           1.5007    2.1069   -4.8606 C.ar    1  UNL1        0.0000
     11 N           0.3400    0.9166   -2.7010 N.ar    1  UNL1        0.0000
     12 C           1.6730    1.1347   -2.6849 C.ar    1  UNL1        0.0000
     13 C           2.3030    1.7395   -3.7685 C.ar    1  UNL1        0.0000
     14 C           3.6973    1.9483   -3.7129 C.ar    1  UNL1        0.0000
     15 C           4.4342    1.5456   -2.5725 C.ar    1  UNL1        0.0000
     16 C           3.7764    0.9325   -1.4858 C.ar    1  UNL1        0.0000
     17 C           2.3947    0.7403   -1.5671 C.ar    1  UNL1        0.0000
     18 N           1.7259    0.1572   -0.5556 N.ar    1  UNL1        0.0000
     19 C           2.3072   -0.2825    0.5765 C.ar    1  UNL1        0.0000
     20 C           1.3990   -0.9162    1.5542 C.ar    1  UNL1        0.0000
     21 N           1.8424   -1.4802    2.7032 N.ar    1  UNL1        0.0000
     22 C           0.9809   -2.1145    3.5489 C.ar    1  UNL1        0.0000
     23 C           1.5435   -2.8380    4.7661 C.3     1  UNL1        0.0000
     24 C           1.9683   -1.7881    5.8150 C.3     1  UNL1        0.0000
     25 C           2.7907   -3.6560    4.3612 C.3     1  UNL1        0.0000
     26 C           0.5038   -3.8423    5.3431 C.3     1  UNL1        0.0000
     27 C          -0.8682   -3.1963    5.5005 C.3     1  UNL1        0.0000
     28 C          -1.4585   -2.7648    4.1282 C.3     1  UNL1        0.0000
     29 C          -2.6031   -1.7676    4.4093 C.3     1  UNL1        0.0000
     30 C          -2.0376   -3.9780    3.3667 C.3     1  UNL1        0.0000
     31 C          -0.4044   -2.1147    3.2394 C.ar    1  UNL1        0.0000
     32 N          -0.8020   -1.5416    2.0711 N.ar    1  UNL1        0.0000
     33 N           0.0735   -0.9759    1.2468 N.ar    1  UNL1        0.0000
     34 C           3.6976   -0.1207    0.7254 C.ar    1  UNL1        0.0000
     35 C           4.4337    0.4951   -0.3151 C.ar    1  UNL1        0.0000
     36 H          -4.5920    1.3640   -2.8990 H       1  UNL1        0.0000
     37 H          -5.1681    0.8591   -4.5181 H       1  UNL1        0.0000
     38 H          -4.4010   -0.3520   -3.4489 H       1  UNL1        0.0000
     39 H          -3.9518    1.6324   -6.1072 H       1  UNL1        0.0000
     40 H          -2.4580    2.4563   -5.7416 H       1  UNL1        0.0000
     41 H          -1.2891    0.0889   -6.1730 H       1  UNL1        0.0000
     42 H          -2.9282   -0.5626   -6.4497 H       1  UNL1        0.0000
     43 H          -3.2249    0.9710   -8.4031 H       1  UNL1        0.0000
     44 H          -1.7717   -0.0826   -8.5836 H       1  UNL1        0.0000
     45 H          -1.5686    1.6498   -8.1150 H       1  UNL1        0.0000
     46 H          -0.4256    2.1754   -5.7131 H       1  UNL1        0.0000
     47 H           1.9462    2.5822   -5.7266 H       1  UNL1        0.0000
     48 H           4.2137    2.4164   -4.5419 H       1  UNL1        0.0000
     49 H           5.5034    1.7096   -2.5429 H       1  UNL1        0.0000
     50 H           2.7523   -1.1176    5.4019 H       1  UNL1        0.0000
     51 H           2.3797   -2.2868    6.7191 H       1  UNL1        0.0000
     52 H           1.1180   -1.1479    6.1251 H       1  UNL1        0.0000
     53 H           2.5347   -4.4002    3.5759 H       1  UNL1        0.0000
     54 H           3.2069   -4.1983    5.2376 H       1  UNL1        0.0000
     55 H           3.5895   -2.9951    3.9599 H       1  UNL1        0.0000
     56 H           0.3913   -4.7138    4.6632 H       1  UNL1        0.0000
     57 H           0.8637   -4.2375    6.3182 H       1  UNL1        0.0000
     58 H          -0.7468   -2.3186    6.1669 H       1  UNL1        0.0000
     59 H          -1.5750   -3.8850    6.0138 H       1  UNL1        0.0000
     60 H          -3.0855   -1.4330    3.4659 H       1  UNL1        0.0000
     61 H          -2.2160   -0.8675    4.9350 H       1  UNL1        0.0000
     62 H          -3.3836   -2.2369    5.0470 H       1  UNL1        0.0000
     63 H          -2.5064   -3.6534    2.4118 H       1  UNL1        0.0000
     64 H          -1.2495   -4.7174    3.1166 H       1  UNL1        0.0000
     65 H          -2.8182   -4.4861    3.9724 H       1  UNL1        0.0000
     66 H           4.2025   -0.4611    1.6203 H       1  UNL1        0.0000
     67 H           5.5035    0.6232   -0.2086 H       1  UNL1        0.0000
     68 EU         -0.5498   -0.0829   -0.8489 Eu      1  UNL1        0.0000
@<TRIPOS>BOND
     1     1     2    2
     2     2     3   am
     3     3     4    1
     4     3     5    1
     5     5     6    1
     6     6     7    1
     7     2     8    1
     8     8     9   ar
     9     9    10   ar
    10     8    11   ar
    11    11    12   ar
    12    12    13   ar
    13    10    13   ar
    14    13    14   ar
    15    14    15   ar
    16    15    16   ar
    17    16    17   ar
    18    12    17   ar
    19    17    18   ar
    20    18    19   ar
    21    19    20    1
    22    20    21   ar
    23    21    22   ar
    24    22    23    1
    25    23    24    1
    26    23    25    1
    27    23    26    1
    28    26    27    1
    29    27    28    1
    30    28    29    1
    31    28    30    1
    32    22    31   ar
    33    28    31    1
    34    31    32   ar
    35    32    33   ar
    36    20    33   ar
    37    19    34   ar
    38    34    35   ar
    39    16    35   ar
    40     4    36    1
    41     4    37    1
    42     4    38    1
    43     5    39    1
    44     5    40    1
    45     6    41    1
    46     6    42    1
    47     7    43    1
    48     7    44    1
    49     7    45    1
    50     9    46    1
    51    10    47    1
    52    14    48    1
    53    15    49    1
    54    24    50    1
    55    24    51    1
    56    24    52    1
    57    25    53    1
    58    25    54    1
    59    25    55    1
    60    26    56    1
    61    26    57    1
    62    27    58    1
    63    27    59    1
    64    29    60    1
    65    29    61    1
    66    29    62    1
    67    30    63    1
    68    30    64    1
    69    30    65    1
    70    34    66    1
    71    35    67    1
    72    68     1    1
    73    68    33    1
    74    68    18    1
    75    68    11    1
@<TRIPOS>MOLECULE
*****
 68 75 0 0 0
SMALL
GASTEIGER

@<TRIPOS>ATOM
      1 O          -2.1760    0.3353   -2.3428 O.2     1  UNL1        0.0000
      2 C          -1.9509    0.8587   -3.4440 C.2     1  UNL1        0.0000
      3 N          -3.0330    1.0268   -4.2923 N.am    1  UNL1        0.0000
      4 C          -4.3628    0.7012   -3.7757 C.3     1  UNL1        0.0000
      5 C          -2.9414    1.4690   -5.6785 C.3     1  UNL1        0.0000
      6 C          -2.3001    0.3642   -6.5409 C.3     1  UNL1        0.0000
      7 C          -2.2115    0.7752   -8.0058 C.3     1  UNL1        0.0000
      8 C          -0.4934    1.2312   -3.7163 C.ar    1  UNL1        0.0000
      9 C           0.1052    1.8649   -4.8418 C.ar    1  UNL1        0.0000
     10 C           1.4978    2.1113   -4.8592 C.ar    1  UNL1        0.0000
     11 N           0.3378    0.9107   -2.7037 N.ar    1  UNL1        0.0000
     12 C           1.6703    1.1301   -2.6874 C.ar    1  UNL1        0.0000
     13 C           2.3001    1.7395   -3.7682 C.ar    1  UNL1        0.0000
     14 C           3.6944    1.9498   -3.7114 C.ar    1  UNL1        0.0000
     15 C           4.4303    1.5441   -2.5722 C.ar    1  UNL1        0.0000
     16 C           3.7733    0.9270   -1.4875 C.ar    1  UNL1        0.0000
     17 C           2.3920    0.7336   -1.5700 C.ar    1  UNL1        0.0000
     18 N           1.7234    0.1474   -0.5598 N.ar    1  UNL1        0.0000
     19 C           2.3050   -0.2932    0.5719 C.ar    1  UNL1        0.0000
     20 C           1.3980   -0.9281    1.5493 C.ar    1  UNL1        0.0000
     21 N           1.8424   -1.4893    2.6994 N.ar    1  UNL1        0.0000
     22 C           0.9813   -2.1215    3.5477 C.ar    1  UNL1        0.0000
     23 C           1.5451   -2.8367    4.7696 C.3     1  UNL1        0.0000
     24 C           1.9754   -1.7787    5.8078 C.3     1  UNL1        0.0000
     25 C           2.7883   -3.6620    4.3683 C.3     1  UNL1        0.0000
     26 C           0.5041   -3.8325    5.3588 C.3     1  UNL1        0.0000
     27 C          -0.8671   -3.1833    5.5088 C.3     1  UNL1        0.0000
     28 C          -1.4576   -2.7683    4.1315 C.3     1  UNL1        0.0000
     29 C          -2.6051   -1.7713    4.4015 C.3     1  UNL1        0.0000
     30 C          -2.0327   -3.9903    3.3815 C.3     1  UNL1        0.0000
     31 C          -0.4035   -2.1245    3.2381 C.ar    1  UNL1        0.0000
     32 N          -0.8021   -1.5558    2.0671 N.ar    1  UNL1        0.0000
     33 N           0.0725   -0.9899    1.2421 N.ar    1  UNL1        0.0000
     34 C           3.6954   -0.1306    0.7213 C.ar    1  UNL1        0.0000
     35 C           4.4309    0.4875   -0.3179 C.ar    1  UNL1        0.0000
     36 H          -4.5948    1.3488   -2.9026 H       1  UNL1        0.0000
     37 H          -5.1682    0.8505   -4.5248 H       1  UNL1        0.0000
     38 H          -4.3986   -0.3638   -3.4612 H       1  UNL1        0.0000
     39 H          -3.9529    1.6364   -6.1083 H       1  UNL1        0.0000
     40 H          -2.4613    2.4619   -5.7371 H       1  UNL1        0.0000
     41 H          -1.2866    0.1000   -6.1832 H       1  UNL1        0.0000
     42 H          -2.9237   -0.5536   -6.4650 H       1  UNL1        0.0000
     43 H          -3.2237    0.9929   -8.4079 H       1  UNL1        0.0000
     44 H          -1.7670   -0.0546   -8.5954 H       1  UNL1        0.0000
     45 H          -1.5700    1.6749   -8.1139 H       1  UNL1        0.0000
     46 H          -0.4281    2.1814   -5.7112 H       1  UNL1        0.0000
     47 H           1.9432    2.5903   -5.7227 H       1  UNL1        0.0000
     48 H           4.2105    2.4216   -4.5384 H       1  UNL1        0.0000
     49 H           5.5002    1.7093   -2.5414 H       1  UNL1        0.0000
     50 H           2.7601   -1.1138    5.3867 H       1  UNL1        0.0000
     51 H           2.3883   -2.2703    6.7150 H       1  UNL1        0.0000
     52 H           1.1275   -1.1338    6.1147 H       1  UNL1        0.0000
     53 H           2.5277   -4.4126    3.5907 H       1  UNL1        0.0000
     54 H           3.2055   -4.1974    5.2485 H       1  UNL1        0.0000
     55 H           3.5879   -3.0072    3.9584 H       1  UNL1        0.0000
     56 H           0.3900   -4.7120    4.6897 H       1  UNL1        0.0000
     57 H           0.8640   -4.2167    6.3382 H       1  UNL1        0.0000
     58 H          -0.7447   -2.2973    6.1641 H       1  UNL1        0.0000
     59 H          -1.5742   -3.8652    6.0305 H       1  UNL1        0.0000
     60 H          -3.0878   -1.4479    3.4543 H       1  UNL1        0.0000
     61 H          -2.2211   -0.8647    4.9182 H       1  UNL1        0.0000
     62 H          -3.3848   -2.2363    5.0433 H       1  UNL1        0.0000
     63 H          -2.5014   -3.6761    2.4230 H       1  UNL1        0.0000
     64 H          -1.2425   -4.7299    3.1390 H       1  UNL1        0.0000
     65 H          -2.8122   -4.4944    3.9917 H       1  UNL1        0.0000
     66 H           4.2006   -0.4725    1.6156 H       1  UNL1        0.0000
     67 H           5.5009    0.6162   -0.2107 H       1  UNL1        0.0000
     68 EU         -0.5521   -0.0941   -0.8534 Eu      1  UNL1        0.0000
@<TRIPOS>BOND
     1     1     2    2
     2     2     3   am
     3     3     4    1
     4     3     5    1
     5     5     6    1
     6     6     7    1
     7     2     8    1
     8     8     9   ar
     9     9    10   ar
    10     8    11   ar
    11    11    12   ar
    12    12    13   ar
    13    10    13   ar
    14    13    14   ar
    15    14    15   ar
    16    15    16   ar
    17    16    17   ar
    18    12    17   ar
    19    17    18   ar
    20    18    19   ar
    21    19    20    1
    22    20    21   ar
    23    21    22   ar
    24    22    23    1
    25    23    24    1
    26    23    25    1
    27    23    26    1
    28    26    27    1
    29    27    28    1
    30    28    29    1
    31    28    30    1
    32    22    31   ar
    33    28    31    1
    34    31    32   ar
    35    32    33   ar
    36    20    33   ar
    37    19    34   ar
    38    34    35   ar
    39    16    35   ar
    40     4    36    1
    41     4    37    1
    42     4    38    1
    43     5    39    1
    44     5    40    1
    45     6    41    1
    46     6    42    1
    47     7    43    1
    48     7    44    1
    49     7    45    1
    50     9    46    1
    51    10    47    1
    52    14    48    1
    53    15    49    1
    54    24    50    1
    55    24    51    1
    56    24    52    1
    57    25    53    1
    58    25    54    1
    59    25    55    1
    60    26    56    1
    61    26    57    1
    62    27    58    1
    63    27    59    1
    64    29    60    1
    65    29    61    1
    66    29    62    1
    67    30    63    1
    68    30    64    1
    69    30    65    1
    70    34    66    1
    71    35    67    1
    72    68     1    1
    73    68    33    1
    74    68    18    1
    75    68    11    1
@<TRIPOS>MOLECULE
*****
 68 75 0 0 0
SMALL
GASTEIGER

@<TRIPOS>ATOM
      1 O          -2.1768    0.3307   -2.3447 O.2     1  UNL1        0.0000
      2 C          -1.9519    0.8555   -3.4455 C.2     1  UNL1        0.0000
      3 N          -3.0333    1.0248   -4.2942 N.am    1  UNL1        0.0000
      4 C          -4.3633    0.6958   -3.7794 C.3     1  UNL1        0.0000
      5 C          -2.9420    1.4709   -5.6792 C.3     1  UNL1        0.0000
      6 C          -2.2993    0.3701   -6.5454 C.3     1  UNL1        0.0000
      7 C          -2.2107    0.7868   -8.0087 C.3     1  UNL1        0.0000
      8 C          -0.4942    1.2297   -3.7163 C.ar    1  UNL1        0.0000
      9 C           0.1042    1.8659   -4.8404 C.ar    1  UNL1        0.0000
     10 C           1.4967    2.1128   -4.8573 C.ar    1  UNL1        0.0000
     11 N           0.3370    0.9078   -2.7044 N.ar    1  UNL1        0.0000
     12 C           1.6695    1.1279   -2.6876 C.ar    1  UNL1        0.0000
     13 C           2.2991    1.7391   -3.7673 C.ar    1  UNL1        0.0000
     14 C           3.6934    1.9504   -3.7101 C.ar    1  UNL1        0.0000
     15 C           4.4293    1.5429   -2.5718 C.ar    1  UNL1        0.0000
     16 C           3.7727    0.9238   -1.4885 C.ar    1  UNL1        0.0000
     17 C           2.3912    0.7293   -1.5709 C.ar    1  UNL1        0.0000
     18 N           1.7232    0.1416   -0.5626 N.ar    1  UNL1        0.0000
     19 C           2.3045   -0.3000    0.5693 C.ar    1  UNL1        0.0000
     20 C           1.3975   -0.9354    1.5462 C.ar    1  UNL1        0.0000
     21 N           1.8421   -1.4948    2.6973 N.ar    1  UNL1        0.0000
     22 C           0.9815   -2.1251    3.5466 C.ar    1  UNL1        0.0000
     23 C           1.5454   -2.8360    4.7711 C.3     1  UNL1        0.0000
     24 C           1.9788   -1.7739    5.8040 C.3     1  UNL1        0.0000
     25 C           2.7872   -3.6649    4.3721 C.3     1  UNL1        0.0000
     26 C           0.5043   -3.8276    5.3669 C.3     1  UNL1        0.0000
     27 C          -0.8666   -3.1769    5.5130 C.3     1  UNL1        0.0000
     28 C          -1.4570   -2.7702    4.1332 C.3     1  UNL1        0.0000
     29 C          -2.6061   -1.7735    4.3976 C.3     1  UNL1        0.0000
     30 C          -2.0303   -3.9967    3.3892 C.3     1  UNL1        0.0000
     31 C          -0.4037   -2.1288    3.2370 C.ar    1  UNL1        0.0000
     32 N          -0.8022   -1.5626    2.0653 N.ar    1  UNL1        0.0000
     33 N           0.0724   -0.9976    1.2390 N.ar    1  UNL1        0.0000
     34 C           3.6950   -0.1366    0.7188 C.ar    1  UNL1        0.0000
     35 C           4.4305    0.4831   -0.3194 C.ar    1  UNL1        0.0000
     36 H          -4.5965    1.3409   -2.9046 H       1  UNL1        0.0000
     37 H          -5.1684    0.8462   -4.5284 H       1  UNL1        0.0000
     38 H          -4.3978   -0.3699   -3.4676 H       1  UNL1        0.0000
     39 H          -3.9534    1.6390   -6.1086 H       1  UNL1        0.0000
     40 H          -2.4628    2.4648   -5.7344 H       1  UNL1        0.0000
     41 H          -1.2858    0.1055   -6.1883 H       1  UNL1        0.0000
     42 H          -2.9220   -0.5486   -6.4730 H       1  UNL1        0.0000
     43 H          -3.2230    1.0047   -8.4104 H       1  UNL1        0.0000
     44 H          -1.7649   -0.0401   -8.6014 H       1  UNL1        0.0000
     45 H          -1.5703    1.6877   -8.1132 H       1  UNL1        0.0000
     46 H          -0.4293    2.1841   -5.7092 H       1  UNL1        0.0000
     47 H           1.9417    2.5940   -5.7198 H       1  UNL1        0.0000
     48 H           4.2089    2.4240   -4.5364 H       1  UNL1        0.0000
     49 H           5.4992    1.7091   -2.5406 H       1  UNL1        0.0000
     50 H           2.7637   -1.1119    5.3787 H       1  UNL1        0.0000
     51 H           2.3926   -2.2618    6.7129 H       1  UNL1        0.0000
     52 H           1.1320   -1.1267    6.1093 H       1  UNL1        0.0000
     53 H           2.5242   -4.4189    3.5985 H       1  UNL1        0.0000
     54 H           3.2049   -4.1968    5.2541 H       1  UNL1        0.0000
     55 H           3.5870   -3.0133    3.9579 H       1  UNL1        0.0000
     56 H           0.3894   -4.7111    4.7034 H       1  UNL1        0.0000
     57 H           0.8643   -4.2061    6.3485 H       1  UNL1        0.0000
     58 H          -0.7438   -2.2867    6.1626 H       1  UNL1        0.0000
     59 H          -1.5739   -3.8554    6.0390 H       1  UNL1        0.0000
     60 H          -3.0889   -1.4559    3.4485 H       1  UNL1        0.0000
     61 H          -2.2236   -0.8636    4.9095 H       1  UNL1        0.0000
     62 H          -3.3854   -2.2362    5.0414 H       1  UNL1        0.0000
     63 H          -2.4990   -3.6881    2.4290 H       1  UNL1        0.0000
     64 H          -1.2392   -4.7367    3.1507 H       1  UNL1        0.0000
     65 H          -2.8093   -4.4989    4.0018 H       1  UNL1        0.0000
     66 H           4.2001   -0.4787    1.6128 H       1  UNL1        0.0000
     67 H           5.5002    0.6126   -0.2117 H       1  UNL1        0.0000
     68 EU         -0.5529   -0.1004   -0.8556 Eu      1  UNL1        0.0000
@<TRIPOS>BOND
     1     1     2    2
     2     2     3   am
     3     3     4    1
     4     3     5    1
     5     5     6    1
     6     6     7    1
     7     2     8    1
     8     8     9   ar
     9     9    10   ar
    10     8    11   ar
    11    11    12   ar
    12    12    13   ar
    13    10    13   ar
    14    13    14   ar
    15    14    15   ar
    16    15    16   ar
    17    16    17   ar
    18    12    17   ar
    19    17    18   ar
    20    18    19   ar
    21    19    20    1
    22    20    21   ar
    23    21    22   ar
    24    22    23    1
    25    23    24    1
    26    23    25    1
    27    23    26    1
    28    26    27    1
    29    27    28    1
    30    28    29    1
    31    28    30    1
    32    22    31   ar
    33    28    31    1
    34    31    32   ar
    35    32    33   ar
    36    20    33   ar
    37    19    34   ar
    38    34    35   ar
    39    16    35   ar
    40     4    36    1
    41     4    37    1
    42     4    38    1
    43     5    39    1
    44     5    40    1
    45     6    41    1
    46     6    42    1
    47     7    43    1
    48     7    44    1
    49     7    45    1
    50     9    46    1
    51    10    47    1
    52    14    48    1
    53    15    49    1
    54    24    50    1
    55    24    51    1
    56    24    52    1
    57    25    53    1
    58    25    54    1
    59    25    55    1
    60    26    56    1
    61    26    57    1
    62    27    58    1
    63    27    59    1
    64    29    60    1
    65    29    61    1
    66    29    62    1
    67    30    63    1
    68    30    64    1
    69    30    65    1
    70    34    66    1
    71    35    67    1
    72    68     1    1
    73    68    33    1
    74    68    18    1
    75    68    11    1
@<TRIPOS>MOLECULE
*****
 68 75 0 0 0
SMALL
GASTEIGER

@<TRIPOS>ATOM
      1 O          -2.1770    0.3232   -2.3493 O.2     1  UNL1        0.0000
      2 C          -1.9518    0.8511   -3.4484 C.2     1  UNL1        0.0000
      3 N          -3.0338    1.0213   -4.2970 N.am    1  UNL1        0.0000
      4 C          -4.3633    0.6886   -3.7840 C.3     1  UNL1        0.0000
      5 C          -2.9425    1.4743   -5.6800 C.3     1  UNL1        0.0000
      6 C          -2.2984    0.3784   -6.5517 C.3     1  UNL1        0.0000
      7 C          -2.2096    0.8037   -8.0127 C.3     1  UNL1        0.0000
      8 C          -0.4948    1.2269   -3.7181 C.ar    1  UNL1        0.0000
      9 C           0.1031    1.8668   -4.8399 C.ar    1  UNL1        0.0000
     10 C           1.4950    2.1153   -4.8561 C.ar    1  UNL1        0.0000
     11 N           0.3367    0.9026   -2.7064 N.ar    1  UNL1        0.0000
     12 C           1.6682    1.1240   -2.6893 C.ar    1  UNL1        0.0000
     13 C           2.2981    1.7388   -3.7671 C.ar    1  UNL1        0.0000
     14 C           3.6916    1.9515   -3.7092 C.ar    1  UNL1        0.0000
     15 C           4.4279    1.5419   -2.5717 C.ar    1  UNL1        0.0000
     16 C           3.7717    0.9196   -1.4896 C.ar    1  UNL1        0.0000
     17 C           2.3908    0.7242   -1.5732 C.ar    1  UNL1        0.0000
     18 N           1.7220    0.1339   -0.5653 N.ar    1  UNL1        0.0000
     19 C           2.3039   -0.3087    0.5655 C.ar    1  UNL1        0.0000
     20 C           1.3974   -0.9449    1.5423 C.ar    1  UNL1        0.0000
     21 N           1.8418   -1.5017    2.6944 N.ar    1  UNL1        0.0000
     22 C           0.9818   -2.1305    3.5453 C.ar    1  UNL1        0.0000
     23 C           1.5463   -2.8350    4.7733 C.3     1  UNL1        0.0000
     24 C           1.9834   -1.7669    5.7986 C.3     1  UNL1        0.0000
     25 C           2.7856   -3.6689    4.3775 C.3     1  UNL1        0.0000
     26 C           0.5045   -3.8205    5.3780 C.3     1  UNL1        0.0000
     27 C          -0.8659   -3.1678    5.5186 C.3     1  UNL1        0.0000
     28 C          -1.4562   -2.7728    4.1352 C.3     1  UNL1        0.0000
     29 C          -2.6073   -1.7763    4.3917 C.3     1  UNL1        0.0000
     30 C          -2.0269   -4.0059    3.4000 C.3     1  UNL1        0.0000
     31 C          -0.4033   -2.1358    3.2355 C.ar    1  UNL1        0.0000
     32 N          -0.8020   -1.5733    2.0619 N.ar    1  UNL1        0.0000
     33 N           0.0721   -1.0083    1.2349 N.ar    1  UNL1        0.0000
     34 C           3.6941   -0.1447    0.7159 C.ar    1  UNL1        0.0000
     35 C           4.4292    0.4772   -0.3215 C.ar    1  UNL1        0.0000
     36 H          -4.5985    1.3295   -2.9069 H       1  UNL1        0.0000
     37 H          -5.1682    0.8402   -4.5331 H       1  UNL1        0.0000
     38 H          -4.3963   -0.3787   -3.4769 H       1  UNL1        0.0000
     39 H          -3.9542    1.6429   -6.1088 H       1  UNL1        0.0000
     40 H          -2.4647    2.4688   -5.7303 H       1  UNL1        0.0000
     41 H          -1.2847    0.1128   -6.1958 H       1  UNL1        0.0000
     42 H          -2.9200   -0.5414   -6.4848 H       1  UNL1        0.0000
     43 H          -3.2220    1.0226   -8.4136 H       1  UNL1        0.0000
     44 H          -1.7622   -0.0190   -8.6100 H       1  UNL1        0.0000
     45 H          -1.5705    1.7062   -8.1117 H       1  UNL1        0.0000
     46 H          -0.4309    2.1876   -5.7077 H       1  UNL1        0.0000
     47 H           1.9394    2.5996   -5.7171 H       1  UNL1        0.0000
     48 H           4.2070    2.4280   -4.5341 H       1  UNL1        0.0000
     49 H           5.4975    1.7094   -2.5400 H       1  UNL1        0.0000
     50 H           2.7686   -1.1090    5.3675 H       1  UNL1        0.0000
     51 H           2.3983   -2.2494    6.7098 H       1  UNL1        0.0000
     52 H           1.1382   -1.1165    6.1013 H       1  UNL1        0.0000
     53 H           2.5196   -4.4277    3.6097 H       1  UNL1        0.0000
     54 H           3.2040   -4.1956    5.2624 H       1  UNL1        0.0000
     55 H           3.5859   -3.0217    3.9573 H       1  UNL1        0.0000
     56 H           0.3886   -4.7098    4.7225 H       1  UNL1        0.0000
     57 H           0.8645   -4.1908    6.3627 H       1  UNL1        0.0000
     58 H          -0.7425   -2.2717    6.1601 H       1  UNL1        0.0000
     59 H          -1.5734   -3.8413    6.0506 H       1  UNL1        0.0000
     60 H          -3.0905   -1.4670    3.4400 H       1  UNL1        0.0000
     61 H          -2.2270   -0.8618    4.8968 H       1  UNL1        0.0000
     62 H          -3.3861   -2.2357    5.0387 H       1  UNL1        0.0000
     63 H          -2.4956   -3.7052    2.4373 H       1  UNL1        0.0000
     64 H          -1.2345   -4.7462    3.1673 H       1  UNL1        0.0000
     65 H          -2.8052   -4.5049    4.0161 H       1  UNL1        0.0000
     66 H           4.1994   -0.4879    1.6095 H       1  UNL1        0.0000
     67 H           5.4989    0.6076   -0.2132 H       1  UNL1        0.0000
     68 EU         -0.5532   -0.1093   -0.8597 Eu      1  UNL1        0.0000
@<TRIPOS>BOND
     1     1     2    2
     2     2     3   am
     3     3     4    1
     4     3     5    1
     5     5     6    1
     6     6     7    1
     7     2     8    1
     8     8     9   ar
     9     9    10   ar
    10     8    11   ar
    11    11    12   ar
    12    12    13   ar
    13    10    13   ar
    14    13    14   ar
    15    14    15   ar
    16    15    16   ar
    17    16    17   ar
    18    12    17   ar
    19    17    18   ar
    20    18    19   ar
    21    19    20    1
    22    20    21   ar
    23    21    22   ar
    24    22    23    1
    25    23    24    1
    26    23    25    1
    27    23    26    1
    28    26    27    1
    29    27    28    1
    30    28    29    1
    31    28    30    1
    32    22    31   ar
    33    28    31    1
    34    31    32   ar
    35    32    33   ar
    36    20    33   ar
    37    19    34   ar
    38    34    35   ar
    39    16    35   ar
    40     4    36    1
    41     4    37    1
    42     4    38    1
    43     5    39    1
    44     5    40    1
    45     6    41    1
    46     6    42    1
    47     7    43    1
    48     7    44    1
    49     7    45    1
    50     9    46    1
    51    10    47    1
    52    14    48    1
    53    15    49    1
    54    24    50    1
    55    24    51    1
    56    24    52    1
    57    25    53    1
    58    25    54    1
    59    25    55    1
    60    26    56    1
    61    26    57    1
    62    27    58    1
    63    27    59    1
    64    29    60    1
    65    29    61    1
    66    29    62    1
    67    30    63    1
    68    30    64    1
    69    30    65    1
    70    34    66    1
    71    35    67    1
    72    68     1    1
    73    68    33    1
    74    68    18    1
    75    68    11    1
@<TRIPOS>MOLECULE
*****
 68 75 0 0 0
SMALL
GASTEIGER

@<TRIPOS>ATOM
      1 O          -2.1770    0.3228   -2.3493 O.2     1  UNL1        0.0000
      2 C          -1.9522    0.8504   -3.4485 C.2     1  UNL1        0.0000
      3 N          -3.0339    1.0212   -4.2971 N.am    1  UNL1        0.0000
      4 C          -4.3632    0.6883   -3.7843 C.3     1  UNL1        0.0000
      5 C          -2.9425    1.4745   -5.6800 C.3     1  UNL1        0.0000
      6 C          -2.2983    0.3788   -6.5520 C.3     1  UNL1        0.0000
      7 C          -2.2095    0.8045   -8.0129 C.3     1  UNL1        0.0000
      8 C          -0.4951    1.2265   -3.7181 C.ar    1  UNL1        0.0000
      9 C           0.1029    1.8672   -4.8397 C.ar    1  UNL1        0.0000
     10 C           1.4949    2.1152   -4.8562 C.ar    1  UNL1        0.0000
     11 N           0.3372    0.9023   -2.7062 N.ar    1  UNL1        0.0000
     12 C           1.6681    1.1240   -2.6890 C.ar    1  UNL1        0.0000
     13 C           2.2979    1.7391   -3.7668 C.ar    1  UNL1        0.0000
     14 C           3.6915    1.9515   -3.7092 C.ar    1  UNL1        0.0000
     15 C           4.4281    1.5420   -2.5716 C.ar    1  UNL1        0.0000
     16 C           3.7716    0.9193   -1.4898 C.ar    1  UNL1        0.0000
     17 C           2.3908    0.7234   -1.5735 C.ar    1  UNL1        0.0000
     18 N           1.7222    0.1336   -0.5656 N.ar    1  UNL1        0.0000
     19 C           2.3040   -0.3089    0.5652 C.ar    1  UNL1        0.0000
     20 C           1.3974   -0.9453    1.5421 C.ar    1  UNL1        0.0000
     21 N           1.8418   -1.5019    2.6943 N.ar    1  UNL1        0.0000
     22 C           0.9819   -2.1307    3.5453 C.ar    1  UNL1        0.0000
     23 C           1.5463   -2.8349    4.7734 C.3     1  UNL1        0.0000
     24 C           1.9836   -1.7666    5.7983 C.3     1  UNL1        0.0000
     25 C           2.7855   -3.6690    4.3778 C.3     1  UNL1        0.0000
     26 C           0.5045   -3.8202    5.3785 C.3     1  UNL1        0.0000
     27 C          -0.8659   -3.1673    5.5188 C.3     1  UNL1        0.0000
     28 C          -1.4562   -2.7729    4.1354 C.3     1  UNL1        0.0000
     29 C          -2.6074   -1.7765    4.3914 C.3     1  UNL1        0.0000
     30 C          -2.0268   -4.0063    3.4005 C.3     1  UNL1        0.0000
     31 C          -0.4033   -2.1361    3.2354 C.ar    1  UNL1        0.0000
     32 N          -0.8020   -1.5737    2.0617 N.ar    1  UNL1        0.0000
     33 N           0.0720   -1.0087    1.2348 N.ar    1  UNL1        0.0000
     34 C           3.6941   -0.1450    0.7157 C.ar    1  UNL1        0.0000
     35 C           4.4294    0.4770   -0.3213 C.ar    1  UNL1        0.0000
     36 H          -4.5985    1.3290   -2.9070 H       1  UNL1        0.0000
     37 H          -5.1682    0.8400   -4.5333 H       1  UNL1        0.0000
     38 H          -4.3962   -0.3791   -3.4773 H       1  UNL1        0.0000
     39 H          -3.9542    1.6430   -6.1088 H       1  UNL1        0.0000
     40 H          -2.4648    2.4690   -5.7301 H       1  UNL1        0.0000
     41 H          -1.2846    0.1131   -6.1962 H       1  UNL1        0.0000
     42 H          -2.9200   -0.5410   -6.4853 H       1  UNL1        0.0000
     43 H          -3.2219    1.0234   -8.4138 H       1  UNL1        0.0000
     44 H          -1.7621   -0.0180   -8.6104 H       1  UNL1        0.0000
     45 H          -1.5705    1.7070   -8.1116 H       1  UNL1        0.0000
     46 H          -0.4307    2.1877   -5.7075 H       1  UNL1        0.0000
     47 H           1.9395    2.5997   -5.7171 H       1  UNL1        0.0000
     48 H           4.2069    2.4280   -4.5339 H       1  UNL1        0.0000
     49 H           5.4974    1.7093   -2.5398 H       1  UNL1        0.0000
     50 H           2.7688   -1.1089    5.3670 H       1  UNL1        0.0000
     51 H           2.3986   -2.2489    6.7097 H       1  UNL1        0.0000
     52 H           1.1384   -1.1160    6.1009 H       1  UNL1        0.0000
     53 H           2.5194   -4.4280    3.6102 H       1  UNL1        0.0000
     54 H           3.2040   -4.1955    5.2628 H       1  UNL1        0.0000
     55 H           3.5858   -3.0220    3.9572 H       1  UNL1        0.0000
     56 H           0.3886   -4.7097    4.7233 H       1  UNL1        0.0000
     57 H           0.8646   -4.1901    6.3633 H       1  UNL1        0.0000
     58 H          -0.7424   -2.2710    6.1600 H       1  UNL1        0.0000
     59 H          -1.5734   -3.8406    6.0511 H       1  UNL1        0.0000
     60 H          -3.0906   -1.4675    3.4396 H       1  UNL1        0.0000
     61 H          -2.2271   -0.8617    4.8963 H       1  UNL1        0.0000
     62 H          -3.3861   -2.2357    5.0386 H       1  UNL1        0.0000
     63 H          -2.4954   -3.7059    2.4377 H       1  UNL1        0.0000
     64 H          -1.2342   -4.7466    3.1681 H       1  UNL1        0.0000
     65 H          -2.8050   -4.5052    4.0168 H       1  UNL1        0.0000
     66 H           4.1993   -0.4882    1.6094 H       1  UNL1        0.0000
     67 H           5.4989    0.6073   -0.2133 H       1  UNL1        0.0000
     68 EU         -0.5533   -0.1095   -0.8598 Eu      1  UNL1        0.0000
@<TRIPOS>BOND
     1     1     2    2
     2     2     3   am
     3     3     4    1
     4     3     5    1
     5     5     6    1
     6     6     7    1
     7     2     8    1
     8     8     9   ar
     9     9    10   ar
    10     8    11   ar
    11    11    12   ar
    12    12    13   ar
    13    10    13   ar
    14    13    14   ar
    15    14    15   ar
    16    15    16   ar
    17    16    17   ar
    18    12    17   ar
    19    17    18   ar
    20    18    19   ar
    21    19    20    1
    22    20    21   ar
    23    21    22   ar
    24    22    23    1
    25    23    24    1
    26    23    25    1
    27    23    26    1
    28    26    27    1
    29    27    28    1
    30    28    29    1
    31    28    30    1
    32    22    31   ar
    33    28    31    1
    34    31    32   ar
    35    32    33   ar
    36    20    33   ar
    37    19    34   ar
    38    34    35   ar
    39    16    35   ar
    40     4    36    1
    41     4    37    1
    42     4    38    1
    43     5    39    1
    44     5    40    1
    45     6    41    1
    46     6    42    1
    47     7    43    1
    48     7    44    1
    49     7    45    1
    50     9    46    1
    51    10    47    1
    52    14    48    1
    53    15    49    1
    54    24    50    1
    55    24    51    1
    56    24    52    1
    57    25    53    1
    58    25    54    1
    59    25    55    1
    60    26    56    1
    61    26    57    1
    62    27    58    1
    63    27    59    1
    64    29    60    1
    65    29    61    1
    66    29    62    1
    67    30    63    1
    68    30    64    1
    69    30    65    1
    70    34    66    1
    71    35    67    1
    72    68     1    1
    73    68    33    1
    74    68    18    1
    75    68    11    1
@<TRIPOS>MOLECULE
*****
 68 75 0 0 0
SMALL
GASTEIGER

@<TRIPOS>ATOM
      1 O          -2.1779    0.3145   -2.3534 O.2     1  UNL1        0.0000
      2 C          -1.9531    0.8450   -3.4517 C.2     1  UNL1        0.0000
      3 N          -3.0345    1.0166   -4.3003 N.am    1  UNL1        0.0000
      4 C          -4.3638    0.6791   -3.7894 C.3     1  UNL1        0.0000
      5 C          -2.9437    1.4773   -5.6806 C.3     1  UNL1        0.0000
      6 C          -2.2977    0.3883   -6.5592 C.3     1  UNL1        0.0000
      7 C          -2.2084    0.8239   -8.0173 C.3     1  UNL1        0.0000
      8 C          -0.4964    1.2232   -3.7194 C.ar    1  UNL1        0.0000
      9 C           0.1016    1.8678   -4.8395 C.ar    1  UNL1        0.0000
     10 C           1.4935    2.1173   -4.8546 C.ar    1  UNL1        0.0000
     11 N           0.3350    0.8977   -2.7091 N.ar    1  UNL1        0.0000
     12 C           1.6675    1.1199   -2.6912 C.ar    1  UNL1        0.0000
     13 C           2.2963    1.7389   -3.7667 C.ar    1  UNL1        0.0000
     14 C           3.6900    1.9523   -3.7074 C.ar    1  UNL1        0.0000
     15 C           4.4263    1.5407   -2.5708 C.ar    1  UNL1        0.0000
     16 C           3.7702    0.9150   -1.4909 C.ar    1  UNL1        0.0000
     17 C           2.3892    0.7185   -1.5757 C.ar    1  UNL1        0.0000
     18 N           1.7211    0.1255   -0.5689 N.ar    1  UNL1        0.0000
     19 C           2.3033   -0.3184    0.5615 C.ar    1  UNL1        0.0000
     20 C           1.3972   -0.9559    1.5378 C.ar    1  UNL1        0.0000
     21 N           1.8421   -1.5099    2.6912 N.ar    1  UNL1        0.0000
     22 C           0.9825   -2.1365    3.5440 C.ar    1  UNL1        0.0000
     23 C           1.5474   -2.8337    4.7759 C.3     1  UNL1        0.0000
     24 C           1.9887   -1.7588    5.7923 C.3     1  UNL1        0.0000
     25 C           2.7842   -3.6732    4.3839 C.3     1  UNL1        0.0000
     26 C           0.5050   -3.8122    5.3906 C.3     1  UNL1        0.0000
     27 C          -0.8649   -3.1572    5.5250 C.3     1  UNL1        0.0000
     28 C          -1.4551   -2.7759    4.1377 C.3     1  UNL1        0.0000
     29 C          -2.6086   -1.7798    4.3850 C.3     1  UNL1        0.0000
     30 C          -2.0228   -4.0162    3.4125 C.3     1  UNL1        0.0000
     31 C          -0.4026   -2.1439    3.2340 C.ar    1  UNL1        0.0000
     32 N          -0.8016   -1.5853    2.0584 N.ar    1  UNL1        0.0000
     33 N           0.0719   -1.0205    1.2305 N.ar    1  UNL1        0.0000
     34 C           3.6931   -0.1536    0.7125 C.ar    1  UNL1        0.0000
     35 C           4.4281    0.4709   -0.3234 C.ar    1  UNL1        0.0000
     36 H          -4.6003    1.3155   -2.9095 H       1  UNL1        0.0000
     37 H          -5.1685    0.8329   -4.5384 H       1  UNL1        0.0000
     38 H          -4.3945   -0.3896   -3.4876 H       1  UNL1        0.0000
     39 H          -3.9553    1.6476   -6.1089 H       1  UNL1        0.0000
     40 H          -2.4668    2.4731   -5.7250 H       1  UNL1        0.0000
     41 H          -1.2840    0.1210   -6.2047 H       1  UNL1        0.0000
     42 H          -2.9184   -0.5327   -6.4991 H       1  UNL1        0.0000
     43 H          -3.2207    1.0445   -8.4174 H       1  UNL1        0.0000
     44 H          -1.7595    0.0061   -8.6202 H       1  UNL1        0.0000
     45 H          -1.5704    1.7279   -8.1095 H       1  UNL1        0.0000
     46 H          -0.4320    2.1906   -5.7063 H       1  UNL1        0.0000
     47 H           1.9381    2.6046   -5.7138 H       1  UNL1        0.0000
     48 H           4.2050    2.4318   -4.5305 H       1  UNL1        0.0000
     49 H           5.4956    1.7089   -2.5380 H       1  UNL1        0.0000
     50 H           2.7742   -1.1056    5.3547 H       1  UNL1        0.0000
     51 H           2.4048   -2.2351    6.7063 H       1  UNL1        0.0000
     52 H           1.1451   -1.1048    6.0919 H       1  UNL1        0.0000
     53 H           2.5147   -4.4374    3.6227 H       1  UNL1        0.0000
     54 H           3.2034   -4.1940    5.2720 H       1  UNL1        0.0000
     55 H           3.5847   -3.0310    3.9567 H       1  UNL1        0.0000
     56 H           0.3880   -4.7079    4.7443 H       1  UNL1        0.0000
     57 H           0.8651   -4.1733    6.3788 H       1  UNL1        0.0000
     58 H          -0.7409   -2.2545    6.1573 H       1  UNL1        0.0000
     59 H          -1.5726   -3.8251    6.0637 H       1  UNL1        0.0000
     60 H          -3.0921   -1.4800    3.4303 H       1  UNL1        0.0000
     61 H          -2.2307   -0.8599    4.8822 H       1  UNL1        0.0000
     62 H          -3.3868   -2.2352    5.0354 H       1  UNL1        0.0000
     63 H          -2.4914   -3.7245    2.4470 H       1  UNL1        0.0000
     64 H          -1.2289   -4.7569    3.1864 H       1  UNL1        0.0000
     65 H          -2.8004   -4.5116    4.0325 H       1  UNL1        0.0000
     66 H           4.1985   -0.4975    1.6058 H       1  UNL1        0.0000
     67 H           5.4976    0.6018   -0.2147 H       1  UNL1        0.0000
     68 EU         -0.5541   -0.1194   -0.8636 Eu      1  UNL1        0.0000
@<TRIPOS>BOND
     1     1     2    2
     2     2     3   am
     3     3     4    1
     4     3     5    1
     5     5     6    1
     6     6     7    1
     7     2     8    1
     8     8     9   ar
     9     9    10   ar
    10     8    11   ar
    11    11    12   ar
    12    12    13   ar
    13    10    13   ar
    14    13    14   ar
    15    14    15   ar
    16    15    16   ar
    17    16    17   ar
    18    12    17   ar
    19    17    18   ar
    20    18    19   ar
    21    19    20    1
    22    20    21   ar
    23    21    22   ar
    24    22    23    1
    25    23    24    1
    26    23    25    1
    27    23    26    1
    28    26    27    1
    29    27    28    1
    30    28    29    1
    31    28    30    1
    32    22    31   ar
    33    28    31    1
    34    31    32   ar
    35    32    33   ar
    36    20    33   ar
    37    19    34   ar
    38    34    35   ar
    39    16    35   ar
    40     4    36    1
    41     4    37    1
    42     4    38    1
    43     5    39    1
    44     5    40    1
    45     6    41    1
    46     6    42    1
    47     7    43    1
    48     7    44    1
    49     7    45    1
    50     9    46    1
    51    10    47    1
    52    14    48    1
    53    15    49    1
    54    24    50    1
    55    24    51    1
    56    24    52    1
    57    25    53    1
    58    25    54    1
    59    25    55    1
    60    26    56    1
    61    26    57    1
    62    27    58    1
    63    27    59    1
    64    29    60    1
    65    29    61    1
    66    29    62    1
    67    30    63    1
    68    30    64    1
    69    30    65    1
    70    34    66    1
    71    35    67    1
    72    68     1    1
    73    68    33    1
    74    68    18    1
    75    68    11    1
@<TRIPOS>MOLECULE
*****
 68 75 0 0 0
SMALL
GASTEIGER

@<TRIPOS>ATOM
      1 O          -2.1789    0.3062   -2.3578 O.2     1  UNL1        0.0000
      2 C          -1.9534    0.8395   -3.4544 C.2     1  UNL1        0.0000
      3 N          -3.0352    1.0134   -4.3035 N.am    1  UNL1        0.0000
      4 C          -4.3635    0.6711   -3.7949 C.3     1  UNL1        0.0000
      5 C          -2.9438    1.4811   -5.6815 C.3     1  UNL1        0.0000
      6 C          -2.2973    0.3970   -6.5662 C.3     1  UNL1        0.0000
      7 C          -2.2074    0.8423   -8.0214 C.3     1  UNL1        0.0000
      8 C          -0.4977    1.2193   -3.7210 C.ar    1  UNL1        0.0000
      9 C           0.1000    1.8675   -4.8389 C.ar    1  UNL1        0.0000
     10 C           1.4917    2.1184   -4.8526 C.ar    1  UNL1        0.0000
     11 N           0.3332    0.8915   -2.7106 N.ar    1  UNL1        0.0000
     12 C           1.6653    1.1155   -2.6912 C.ar    1  UNL1        0.0000
     13 C           2.2941    1.7379   -3.7653 C.ar    1  UNL1        0.0000
     14 C           3.6878    1.9526   -3.7057 C.ar    1  UNL1        0.0000
     15 C           4.4242    1.5387   -2.5703 C.ar    1  UNL1        0.0000
     16 C           3.7682    0.9104   -1.4916 C.ar    1  UNL1        0.0000
     17 C           2.3871    0.7125   -1.5770 C.ar    1  UNL1        0.0000
     18 N           1.7195    0.1177   -0.5715 N.ar    1  UNL1        0.0000
     19 C           2.3019   -0.3267    0.5584 C.ar    1  UNL1        0.0000
     20 C           1.3964   -0.9651    1.5342 C.ar    1  UNL1        0.0000
     21 N           1.8416   -1.5166    2.6885 N.ar    1  UNL1        0.0000
     22 C           0.9827   -2.1416    3.5429 C.ar    1  UNL1        0.0000
     23 C           1.5483   -2.8323    4.7783 C.3     1  UNL1        0.0000
     24 C           1.9931   -1.7514    5.7868 C.3     1  UNL1        0.0000
     25 C           2.7828   -3.6766    4.3897 C.3     1  UNL1        0.0000
     26 C           0.5053   -3.8047    5.4017 C.3     1  UNL1        0.0000
     27 C          -0.8642   -3.1480    5.5303 C.3     1  UNL1        0.0000
     28 C          -1.4544   -2.7787    4.1397 C.3     1  UNL1        0.0000
     29 C          -2.6099   -1.7829    4.3789 C.3     1  UNL1        0.0000
     30 C          -2.0194   -4.0253    3.4234 C.3     1  UNL1        0.0000
     31 C          -0.4023   -2.1509    3.2326 C.ar    1  UNL1        0.0000
     32 N          -0.8017   -1.5958    2.0554 N.ar    1  UNL1        0.0000
     33 N           0.0712   -1.0313    1.2267 N.ar    1  UNL1        0.0000
     34 C           3.6916   -0.1612    0.7100 C.ar    1  UNL1        0.0000
     35 C           4.4262    0.4650   -0.3247 C.ar    1  UNL1        0.0000
     36 H          -4.6019    1.3028   -2.9120 H       1  UNL1        0.0000
     37 H          -5.1683    0.8266   -4.5434 H       1  UNL1        0.0000
     38 H          -4.3929   -0.3992   -3.4978 H       1  UNL1        0.0000
     39 H          -3.9559    1.6520   -6.1088 H       1  UNL1        0.0000
     40 H          -2.4683    2.4770   -5.7204 H       1  UNL1        0.0000
     41 H          -1.2838    0.1279   -6.2129 H       1  UNL1        0.0000
     42 H          -2.9177   -0.5245   -6.5121 H       1  UNL1        0.0000
     43 H          -3.2196    1.0649   -8.4208 H       1  UNL1        0.0000
     44 H          -1.7575    0.0290   -8.6295 H       1  UNL1        0.0000
     45 H          -1.5701    1.7475   -8.1072 H       1  UNL1        0.0000
     46 H          -0.4332    2.1924   -5.7050 H       1  UNL1        0.0000
     47 H           1.9361    2.6083   -5.7108 H       1  UNL1        0.0000
     48 H           4.2026    2.4340   -4.5282 H       1  UNL1        0.0000
     49 H           5.4934    1.7075   -2.5371 H       1  UNL1        0.0000
     50 H           2.7788   -1.1024    5.3434 H       1  UNL1        0.0000
     51 H           2.4102   -2.2222    6.7031 H       1  UNL1        0.0000
     52 H           1.1509   -1.0942    6.0835 H       1  UNL1        0.0000
     53 H           2.5105   -4.4455    3.6343 H       1  UNL1        0.0000
     54 H           3.2027   -4.1919    5.2806 H       1  UNL1        0.0000
     55 H           3.5837   -3.0388    3.9565 H       1  UNL1        0.0000
     56 H           0.3876   -4.7060    4.7634 H       1  UNL1        0.0000
     57 H           0.8655   -4.1575    6.3928 H       1  UNL1        0.0000
     58 H          -0.7397   -2.2396    6.1545 H       1  UNL1        0.0000
     59 H          -1.5720   -3.8110    6.0749 H       1  UNL1        0.0000
     60 H          -3.0935   -1.4915    3.4218 H       1  UNL1        0.0000
     61 H          -2.2340   -0.8584    4.8692 H       1  UNL1        0.0000
     62 H          -3.3875   -2.2348    5.0325 H       1  UNL1        0.0000
     63 H          -2.4878   -3.7417    2.4556 H       1  UNL1        0.0000
     64 H          -1.2240   -4.7663    3.2033 H       1  UNL1        0.0000
     65 H          -2.7962   -4.5176    4.0469 H       1  UNL1        0.0000
     66 H           4.1970   -0.5057    1.6031 H       1  UNL1        0.0000
     67 H           5.4956    0.5968   -0.2155 H       1  UNL1        0.0000
     68 EU         -0.5560   -0.1287   -0.8672 Eu      1  UNL1        0.0000
@<TRIPOS>BOND
     1     1     2    2
     2     2     3   am
     3     3     4    1
     4     3     5    1
     5     5     6    1
     6     6     7    1
     7     2     8    1
     8     8     9   ar
     9     9    10   ar
    10     8    11   ar
    11    11    12   ar
    12    12    13   ar
    13    10    13   ar
    14    13    14   ar
    15    14    15   ar
    16    15    16   ar
    17    16    17   ar
    18    12    17   ar
    19    17    18   ar
    20    18    19   ar
    21    19    20    1
    22    20    21   ar
    23    21    22   ar
    24    22    23    1
    25    23    24    1
    26    23    25    1
    27    23    26    1
    28    26    27    1
    29    27    28    1
    30    28    29    1
    31    28    30    1
    32    22    31   ar
    33    28    31    1
    34    31    32   ar
    35    32    33   ar
    36    20    33   ar
    37    19    34   ar
    38    34    35   ar
    39    16    35   ar
    40     4    36    1
    41     4    37    1
    42     4    38    1
    43     5    39    1
    44     5    40    1
    45     6    41    1
    46     6    42    1
    47     7    43    1
    48     7    44    1
    49     7    45    1
    50     9    46    1
    51    10    47    1
    52    14    48    1
    53    15    49    1
    54    24    50    1
    55    24    51    1
    56    24    52    1
    57    25    53    1
    58    25    54    1
    59    25    55    1
    60    26    56    1
    61    26    57    1
    62    27    58    1
    63    27    59    1
    64    29    60    1
    65    29    61    1
    66    29    62    1
    67    30    63    1
    68    30    64    1
    69    30    65    1
    70    34    66    1
    71    35    67    1
    72    68     1    1
    73    68    33    1
    74    68    18    1
    75    68    11    1
@<TRIPOS>MOLECULE
*****
 68 75 0 0 0
SMALL
GASTEIGER

@<TRIPOS>ATOM
      1 O          -2.1790    0.2981   -2.3617 O.2     1  UNL1        0.0000
      2 C          -1.9540    0.8336   -3.4576 C.2     1  UNL1        0.0000
      3 N          -3.0352    1.0087   -4.3060 N.am    1  UNL1        0.0000
      4 C          -4.3636    0.6626   -3.7997 C.3     1  UNL1        0.0000
      5 C          -2.9446    1.4834   -5.6820 C.3     1  UNL1        0.0000
      6 C          -2.2972    0.4053   -6.5731 C.3     1  UNL1        0.0000
      7 C          -2.2065    0.8606   -8.0252 C.3     1  UNL1        0.0000
      8 C          -0.4978    1.2155   -3.7223 C.ar    1  UNL1        0.0000
      9 C           0.0992    1.8665   -4.8386 C.ar    1  UNL1        0.0000
     10 C           1.4905    2.1185   -4.8519 C.ar    1  UNL1        0.0000
     11 N           0.3332    0.8866   -2.7121 N.ar    1  UNL1        0.0000
     12 C           1.6645    1.1114   -2.6924 C.ar    1  UNL1        0.0000
     13 C           2.2929    1.7362   -3.7654 C.ar    1  UNL1        0.0000
     14 C           3.6864    1.9517   -3.7046 C.ar    1  UNL1        0.0000
     15 C           4.4227    1.5367   -2.5702 C.ar    1  UNL1        0.0000
     16 C           3.7673    0.9058   -1.4929 C.ar    1  UNL1        0.0000
     17 C           2.3867    0.7070   -1.5784 C.ar    1  UNL1        0.0000
     18 N           1.7191    0.1101   -0.5746 N.ar    1  UNL1        0.0000
     19 C           2.3013   -0.3349    0.5552 C.ar    1  UNL1        0.0000
     20 C           1.3963   -0.9743    1.5304 C.ar    1  UNL1        0.0000
     21 N           1.8414   -1.5230    2.6862 N.ar    1  UNL1        0.0000
     22 C           0.9829   -2.1461    3.5422 C.ar    1  UNL1        0.0000
     23 C           1.5490   -2.8307    4.7808 C.3     1  UNL1        0.0000
     24 C           1.9970   -1.7442    5.7817 C.3     1  UNL1        0.0000
     25 C           2.7815   -3.6794    4.3956 C.3     1  UNL1        0.0000
     26 C           0.5057   -3.7973    5.4124 C.3     1  UNL1        0.0000
     27 C          -0.8635   -3.1389    5.5356 C.3     1  UNL1        0.0000
     28 C          -1.4535   -2.7812    4.1420 C.3     1  UNL1        0.0000
     29 C          -2.6113   -1.7860    4.3735 C.3     1  UNL1        0.0000
     30 C          -2.0158   -4.0338    3.4342 C.3     1  UNL1        0.0000
     31 C          -0.4019   -2.1576    3.2317 C.ar    1  UNL1        0.0000
     32 N          -0.8015   -1.6060    2.0525 N.ar    1  UNL1        0.0000
     33 N           0.0712   -1.0419    1.2231 N.ar    1  UNL1        0.0000
     34 C           3.6909   -0.1686    0.7070 C.ar    1  UNL1        0.0000
     35 C           4.4253    0.4593   -0.3265 C.ar    1  UNL1        0.0000
     36 H          -4.6031    1.2901   -2.9142 H       1  UNL1        0.0000
     37 H          -5.1681    0.8202   -4.5480 H       1  UNL1        0.0000
     38 H          -4.3914   -0.4091   -3.5074 H       1  UNL1        0.0000
     39 H          -3.9566    1.6564   -6.1084 H       1  UNL1        0.0000
     40 H          -2.4696    2.4802   -5.7153 H       1  UNL1        0.0000
     41 H          -1.2838    0.1340   -6.2210 H       1  UNL1        0.0000
     42 H          -2.9174   -0.5166   -6.5254 H       1  UNL1        0.0000
     43 H          -3.2185    1.0857   -8.4237 H       1  UNL1        0.0000
     44 H          -1.7558    0.0518   -8.6387 H       1  UNL1        0.0000
     45 H          -1.5695    1.7666   -8.1045 H       1  UNL1        0.0000
     46 H          -0.4344    2.1935   -5.7041 H       1  UNL1        0.0000
     47 H           1.9343    2.6112   -5.7087 H       1  UNL1        0.0000
     48 H           4.2007    2.4360   -4.5261 H       1  UNL1        0.0000
     49 H           5.4918    1.7069   -2.5361 H       1  UNL1        0.0000
     50 H           2.7830   -1.0990    5.3330 H       1  UNL1        0.0000
     51 H           2.4152   -2.2096    6.7003 H       1  UNL1        0.0000
     52 H           1.1561   -1.0841    6.0757 H       1  UNL1        0.0000
     53 H           2.5067   -4.4529    3.6458 H       1  UNL1        0.0000
     54 H           3.2021   -4.1896    5.2891 H       1  UNL1        0.0000
     55 H           3.5826   -3.0458    3.9567 H       1  UNL1        0.0000
     56 H           0.3873   -4.7038    4.7818 H       1  UNL1        0.0000
     57 H           0.8660   -4.1422    6.4062 H       1  UNL1        0.0000
     58 H          -0.7387   -2.2252    6.1520 H       1  UNL1        0.0000
     59 H          -1.5714   -3.7973    6.0857 H       1  UNL1        0.0000
     60 H          -3.0952   -1.5028    3.4140 H       1  UNL1        0.0000
     61 H          -2.2377   -0.8572    4.8570 H       1  UNL1        0.0000
     62 H          -3.3883   -2.2348    5.0300 H       1  UNL1        0.0000
     63 H          -2.4842   -3.7580    2.4641 H       1  UNL1        0.0000
     64 H          -1.2191   -4.7749    3.2196 H       1  UNL1        0.0000
     65 H          -2.7920   -4.5231    4.0608 H       1  UNL1        0.0000
     66 H           4.1961   -0.5135    1.6002 H       1  UNL1        0.0000
     67 H           5.4946    0.5920   -0.2168 H       1  UNL1        0.0000
     68 EU         -0.5563   -0.1378   -0.8707 Eu      1  UNL1        0.0000
@<TRIPOS>BOND
     1     1     2    2
     2     2     3   am
     3     3     4    1
     4     3     5    1
     5     5     6    1
     6     6     7    1
     7     2     8    1
     8     8     9   ar
     9     9    10   ar
    10     8    11   ar
    11    11    12   ar
    12    12    13   ar
    13    10    13   ar
    14    13    14   ar
    15    14    15   ar
    16    15    16   ar
    17    16    17   ar
    18    12    17   ar
    19    17    18   ar
    20    18    19   ar
    21    19    20    1
    22    20    21   ar
    23    21    22   ar
    24    22    23    1
    25    23    24    1
    26    23    25    1
    27    23    26    1
    28    26    27    1
    29    27    28    1
    30    28    29    1
    31    28    30    1
    32    22    31   ar
    33    28    31    1
    34    31    32   ar
    35    32    33   ar
    36    20    33   ar
    37    19    34   ar
    38    34    35   ar
    39    16    35   ar
    40     4    36    1
    41     4    37    1
    42     4    38    1
    43     5    39    1
    44     5    40    1
    45     6    41    1
    46     6    42    1
    47     7    43    1
    48     7    44    1
    49     7    45    1
    50     9    46    1
    51    10    47    1
    52    14    48    1
    53    15    49    1
    54    24    50    1
    55    24    51    1
    56    24    52    1
    57    25    53    1
    58    25    54    1
    59    25    55    1
    60    26    56    1
    61    26    57    1
    62    27    58    1
    63    27    59    1
    64    29    60    1
    65    29    61    1
    66    29    62    1
    67    30    63    1
    68    30    64    1
    69    30    65    1
    70    34    66    1
    71    35    67    1
    72    68     1    1
    73    68    33    1
    74    68    18    1
    75    68    11    1
@<TRIPOS>MOLECULE
*****
 68 75 0 0 0
SMALL
GASTEIGER

@<TRIPOS>ATOM
      1 O          -2.1789    0.2976   -2.3621 O.2     1  UNL1        0.0000
      2 C          -1.9542    0.8334   -3.4576 C.2     1  UNL1        0.0000
      3 N          -3.0352    1.0084   -4.3063 N.am    1  UNL1        0.0000
      4 C          -4.3635    0.6621   -3.8000 C.3     1  UNL1        0.0000
      5 C          -2.9446    1.4835   -5.6819 C.3     1  UNL1        0.0000
      6 C          -2.2972    0.4059   -6.5735 C.3     1  UNL1        0.0000
      7 C          -2.2064    0.8618   -8.0254 C.3     1  UNL1        0.0000
      8 C          -0.4978    1.2155   -3.7222 C.ar    1  UNL1        0.0000
      9 C           0.0990    1.8667   -4.8386 C.ar    1  UNL1        0.0000
     10 C           1.4905    2.1186   -4.8518 C.ar    1  UNL1        0.0000
     11 N           0.3331    0.8862   -2.7123 N.ar    1  UNL1        0.0000
     12 C           1.6648    1.1115   -2.6921 C.ar    1  UNL1        0.0000
     13 C           2.2929    1.7360   -3.7656 C.ar    1  UNL1        0.0000
     14 C           3.6864    1.9519   -3.7049 C.ar    1  UNL1        0.0000
     15 C           4.4228    1.5373   -2.5701 C.ar    1  UNL1        0.0000
     16 C           3.7674    0.9054   -1.4928 C.ar    1  UNL1        0.0000
     17 C           2.3866    0.7068   -1.5791 C.ar    1  UNL1        0.0000
     18 N           1.7189    0.1092   -0.5744 N.ar    1  UNL1        0.0000
     19 C           2.3011   -0.3354    0.5545 C.ar    1  UNL1        0.0000
     20 C           1.3957   -0.9746    1.5303 C.ar    1  UNL1        0.0000
     21 N           1.8416   -1.5234    2.6856 N.ar    1  UNL1        0.0000
     22 C           0.9830   -2.1466    3.5422 C.ar    1  UNL1        0.0000
     23 C           1.5491   -2.8306    4.7809 C.3     1  UNL1        0.0000
     24 C           1.9973   -1.7437    5.7815 C.3     1  UNL1        0.0000
     25 C           2.7814   -3.6796    4.3960 C.3     1  UNL1        0.0000
     26 C           0.5057   -3.7969    5.4131 C.3     1  UNL1        0.0000
     27 C          -0.8634   -3.1384    5.5360 C.3     1  UNL1        0.0000
     28 C          -1.4536   -2.7815    4.1420 C.3     1  UNL1        0.0000
     29 C          -2.6114   -1.7863    4.3731 C.3     1  UNL1        0.0000
     30 C          -2.0156   -4.0344    3.4348 C.3     1  UNL1        0.0000
     31 C          -0.4018   -2.1576    3.2315 C.ar    1  UNL1        0.0000
     32 N          -0.8016   -1.6070    2.0522 N.ar    1  UNL1        0.0000
     33 N           0.0711   -1.0422    1.2225 N.ar    1  UNL1        0.0000
     34 C           3.6909   -0.1689    0.7068 C.ar    1  UNL1        0.0000
     35 C           4.4253    0.4592   -0.3267 C.ar    1  UNL1        0.0000
     36 H          -4.6033    1.2893   -2.9143 H       1  UNL1        0.0000
     37 H          -5.1682    0.8198   -4.5483 H       1  UNL1        0.0000
     38 H          -4.3913   -0.4096   -3.5080 H       1  UNL1        0.0000
     39 H          -3.9567    1.6567   -6.1084 H       1  UNL1        0.0000
     40 H          -2.4697    2.4805   -5.7150 H       1  UNL1        0.0000
     41 H          -1.2839    0.1344   -6.2215 H       1  UNL1        0.0000
     42 H          -2.9174   -0.5161   -6.5262 H       1  UNL1        0.0000
     43 H          -3.2184    1.0871   -8.4239 H       1  UNL1        0.0000
     44 H          -1.7558    0.0533   -8.6393 H       1  UNL1        0.0000
     45 H          -1.5695    1.7679   -8.1044 H       1  UNL1        0.0000
     46 H          -0.4344    2.1934   -5.7040 H       1  UNL1        0.0000
     47 H           1.9342    2.6113   -5.7084 H       1  UNL1        0.0000
     48 H           4.2006    2.4360   -4.5259 H       1  UNL1        0.0000
     49 H           5.4917    1.7068   -2.5360 H       1  UNL1        0.0000
     50 H           2.7833   -1.0988    5.3323 H       1  UNL1        0.0000
     51 H           2.4155   -2.2088    6.7001 H       1  UNL1        0.0000
     52 H           1.1564   -1.0834    6.0752 H       1  UNL1        0.0000
     53 H           2.5064   -4.4534    3.6466 H       1  UNL1        0.0000
     54 H           3.2021   -4.1894    5.2896 H       1  UNL1        0.0000
     55 H           3.5826   -3.0463    3.9568 H       1  UNL1        0.0000
     56 H           0.3873   -4.7037    4.7830 H       1  UNL1        0.0000
     57 H           0.8660   -4.1412    6.4071 H       1  UNL1        0.0000
     58 H          -0.7387   -2.2243    6.1518 H       1  UNL1        0.0000
     59 H          -1.5714   -3.7965    6.0864 H       1  UNL1        0.0000
     60 H          -3.0953   -1.5035    3.4135 H       1  UNL1        0.0000
     61 H          -2.2379   -0.8571    4.8563 H       1  UNL1        0.0000
     62 H          -3.3883   -2.2348    5.0298 H       1  UNL1        0.0000
     63 H          -2.4840   -3.7591    2.4646 H       1  UNL1        0.0000
     64 H          -1.2187   -4.7755    3.2207 H       1  UNL1        0.0000
     65 H          -2.7917   -4.5235    4.0617 H       1  UNL1        0.0000
     66 H           4.1961   -0.5141    1.5999 H       1  UNL1        0.0000
     67 H           5.4945    0.5917   -0.2169 H       1  UNL1        0.0000
     68 EU         -0.5563   -0.1383   -0.8709 Eu      1  UNL1        0.0000
@<TRIPOS>BOND
     1     1     2    2
     2     2     3   am
     3     3     4    1
     4     3     5    1
     5     5     6    1
     6     6     7    1
     7     2     8    1
     8     8     9   ar
     9     9    10   ar
    10     8    11   ar
    11    11    12   ar
    12    12    13   ar
    13    10    13   ar
    14    13    14   ar
    15    14    15   ar
    16    15    16   ar
    17    16    17   ar
    18    12    17   ar
    19    17    18   ar
    20    18    19   ar
    21    19    20    1
    22    20    21   ar
    23    21    22   ar
    24    22    23    1
    25    23    24    1
    26    23    25    1
    27    23    26    1
    28    26    27    1
    29    27    28    1
    30    28    29    1
    31    28    30    1
    32    22    31   ar
    33    28    31    1
    34    31    32   ar
    35    32    33   ar
    36    20    33   ar
    37    19    34   ar
    38    34    35   ar
    39    16    35   ar
    40     4    36    1
    41     4    37    1
    42     4    38    1
    43     5    39    1
    44     5    40    1
    45     6    41    1
    46     6    42    1
    47     7    43    1
    48     7    44    1
    49     7    45    1
    50     9    46    1
    51    10    47    1
    52    14    48    1
    53    15    49    1
    54    24    50    1
    55    24    51    1
    56    24    52    1
    57    25    53    1
    58    25    54    1
    59    25    55    1
    60    26    56    1
    61    26    57    1
    62    27    58    1
    63    27    59    1
    64    29    60    1
    65    29    61    1
    66    29    62    1
    67    30    63    1
    68    30    64    1
    69    30    65    1
    70    34    66    1
    71    35    67    1
    72    68     1    1
    73    68    33    1
    74    68    18    1
    75    68    11    1
@<TRIPOS>MOLECULE
*****
 68 75 0 0 0
SMALL
GASTEIGER

@<TRIPOS>ATOM
      1 O          -2.1793    0.2946   -2.3636 O.2     1  UNL1        0.0000
      2 C          -1.9541    0.8310   -3.4588 C.2     1  UNL1        0.0000
      3 N          -3.0356    1.0074   -4.3072 N.am    1  UNL1        0.0000
      4 C          -4.3638    0.6593   -3.8017 C.3     1  UNL1        0.0000
      5 C          -2.9451    1.4847   -5.6821 C.3     1  UNL1        0.0000
      6 C          -2.2973    0.4090   -6.5758 C.3     1  UNL1        0.0000
      7 C          -2.2062    0.8683   -8.0267 C.3     1  UNL1        0.0000
      8 C          -0.4983    1.2143   -3.7229 C.ar    1  UNL1        0.0000
      9 C           0.0988    1.8663   -4.8386 C.ar    1  UNL1        0.0000
     10 C           1.4901    2.1189   -4.8515 C.ar    1  UNL1        0.0000
     11 N           0.3327    0.8845   -2.7131 N.ar    1  UNL1        0.0000
     12 C           1.6641    1.1105   -2.6928 C.ar    1  UNL1        0.0000
     13 C           2.2928    1.7356   -3.7651 C.ar    1  UNL1        0.0000
     14 C           3.6859    1.9520   -3.7046 C.ar    1  UNL1        0.0000
     15 C           4.4223    1.5363   -2.5698 C.ar    1  UNL1        0.0000
     16 C           3.7667    0.9042   -1.4932 C.ar    1  UNL1        0.0000
     17 C           2.3864    0.7050   -1.5794 C.ar    1  UNL1        0.0000
     18 N           1.7186    0.1071   -0.5756 N.ar    1  UNL1        0.0000
     19 C           2.3010   -0.3383    0.5537 C.ar    1  UNL1        0.0000
     20 C           1.3961   -0.9781    1.5290 C.ar    1  UNL1        0.0000
     21 N           1.8416   -1.5260    2.6848 N.ar    1  UNL1        0.0000
     22 C           0.9832   -2.1484    3.5416 C.ar    1  UNL1        0.0000
     23 C           1.5495   -2.8302    4.7818 C.3     1  UNL1        0.0000
     24 C           1.9986   -1.7412    5.7796 C.3     1  UNL1        0.0000
     25 C           2.7812   -3.6806    4.3982 C.3     1  UNL1        0.0000
     26 C           0.5060   -3.7944    5.4168 C.3     1  UNL1        0.0000
     27 C          -0.8631   -3.1355    5.5377 C.3     1  UNL1        0.0000
     28 C          -1.4531   -2.7825    4.1428 C.3     1  UNL1        0.0000
     29 C          -2.6117   -1.7875    4.3711 C.3     1  UNL1        0.0000
     30 C          -2.0144   -4.0376    3.4386 C.3     1  UNL1        0.0000
     31 C          -0.4016   -2.1604    3.2309 C.ar    1  UNL1        0.0000
     32 N          -0.8014   -1.6104    2.0512 N.ar    1  UNL1        0.0000
     33 N           0.0710   -1.0464    1.2212 N.ar    1  UNL1        0.0000
     34 C           3.6904   -0.1717    0.7056 C.ar    1  UNL1        0.0000
     35 C           4.4250    0.4572   -0.3271 C.ar    1  UNL1        0.0000
     36 H          -4.6040    1.2850   -2.9150 H       1  UNL1        0.0000
     37 H          -5.1683    0.8177   -4.5499 H       1  UNL1        0.0000
     38 H          -4.3909   -0.4129   -3.5115 H       1  UNL1        0.0000
     39 H          -3.9570    1.6585   -6.1082 H       1  UNL1        0.0000
     40 H          -2.4701    2.4819   -5.7132 H       1  UNL1        0.0000
     41 H          -1.2841    0.1366   -6.2242 H       1  UNL1        0.0000
     42 H          -2.9174   -0.5131   -6.5307 H       1  UNL1        0.0000
     43 H          -3.2181    1.0945   -8.4249 H       1  UNL1        0.0000
     44 H          -1.7553    0.0612   -8.6424 H       1  UNL1        0.0000
     45 H          -1.5693    1.7745   -8.1034 H       1  UNL1        0.0000
     46 H          -0.4348    2.1937   -5.7037 H       1  UNL1        0.0000
     47 H           1.9341    2.6127   -5.7074 H       1  UNL1        0.0000
     48 H           4.2000    2.4369   -4.5252 H       1  UNL1        0.0000
     49 H           5.4912    1.7068   -2.5356 H       1  UNL1        0.0000
     50 H           2.7847   -1.0976    5.3287 H       1  UNL1        0.0000
     51 H           2.4171   -2.2044    6.6992 H       1  UNL1        0.0000
     52 H           1.1582   -1.0799    6.0724 H       1  UNL1        0.0000
     53 H           2.5054   -4.4560    3.6507 H       1  UNL1        0.0000
     54 H           3.2021   -4.1886    5.2928 H       1  UNL1        0.0000
     55 H           3.5824   -3.0487    3.9570 H       1  UNL1        0.0000
     56 H           0.3874   -4.7031    4.7894 H       1  UNL1        0.0000
     57 H           0.8663   -4.1360    6.4118 H       1  UNL1        0.0000
     58 H          -0.7383   -2.2195    6.1508 H       1  UNL1        0.0000
     59 H          -1.5711   -3.7919    6.0900 H       1  UNL1        0.0000
     60 H          -3.0956   -1.5075    3.4107 H       1  UNL1        0.0000
     61 H          -2.2388   -0.8569    4.8519 H       1  UNL1        0.0000
     62 H          -3.3885   -2.2348    5.0288 H       1  UNL1        0.0000
     63 H          -2.4827   -3.7649    2.4676 H       1  UNL1        0.0000
     64 H          -1.2171   -4.7788    3.2263 H       1  UNL1        0.0000
     65 H          -2.7903   -4.5256    4.0665 H       1  UNL1        0.0000
     66 H           4.1958   -0.5172    1.5989 H       1  UNL1        0.0000
     67 H           5.4942    0.5900   -0.2172 H       1  UNL1        0.0000
     68 EU         -0.5565   -0.1416   -0.8723 Eu      1  UNL1        0.0000
@<TRIPOS>BOND
     1     1     2    2
     2     2     3   am
     3     3     4    1
     4     3     5    1
     5     5     6    1
     6     6     7    1
     7     2     8    1
     8     8     9   ar
     9     9    10   ar
    10     8    11   ar
    11    11    12   ar
    12    12    13   ar
    13    10    13   ar
    14    13    14   ar
    15    14    15   ar
    16    15    16   ar
    17    16    17   ar
    18    12    17   ar
    19    17    18   ar
    20    18    19   ar
    21    19    20    1
    22    20    21   ar
    23    21    22   ar
    24    22    23    1
    25    23    24    1
    26    23    25    1
    27    23    26    1
    28    26    27    1
    29    27    28    1
    30    28    29    1
    31    28    30    1
    32    22    31   ar
    33    28    31    1
    34    31    32   ar
    35    32    33   ar
    36    20    33   ar
    37    19    34   ar
    38    34    35   ar
    39    16    35   ar
    40     4    36    1
    41     4    37    1
    42     4    38    1
    43     5    39    1
    44     5    40    1
    45     6    41    1
    46     6    42    1
    47     7    43    1
    48     7    44    1
    49     7    45    1
    50     9    46    1
    51    10    47    1
    52    14    48    1
    53    15    49    1
    54    24    50    1
    55    24    51    1
    56    24    52    1
    57    25    53    1
    58    25    54    1
    59    25    55    1
    60    26    56    1
    61    26    57    1
    62    27    58    1
    63    27    59    1
    64    29    60    1
    65    29    61    1
    66    29    62    1
    67    30    63    1
    68    30    64    1
    69    30    65    1
    70    34    66    1
    71    35    67    1
    72    68     1    1
    73    68    33    1
    74    68    18    1
    75    68    11    1
@<TRIPOS>MOLECULE
*****
 68 75 0 0 0
SMALL
GASTEIGER

@<TRIPOS>ATOM
      1 O          -2.1794    0.2878   -2.3669 O.2     1  UNL1        0.0000
      2 C          -1.9546    0.8269   -3.4610 C.2     1  UNL1        0.0000
      3 N          -3.0353    1.0033   -4.3096 N.am    1  UNL1        0.0000
      4 C          -4.3636    0.6519   -3.8062 C.3     1  UNL1        0.0000
      5 C          -2.9456    1.4876   -5.6825 C.3     1  UNL1        0.0000
      6 C          -2.2976    0.4169   -6.5819 C.3     1  UNL1        0.0000
      7 C          -2.2056    0.8852   -8.0299 C.3     1  UNL1        0.0000
      8 C          -0.4990    1.2114   -3.7236 C.ar    1  UNL1        0.0000
      9 C           0.0978    1.8663   -4.8380 C.ar    1  UNL1        0.0000
     10 C           1.4892    2.1196   -4.8504 C.ar    1  UNL1        0.0000
     11 N           0.3318    0.8802   -2.7139 N.ar    1  UNL1        0.0000
     12 C           1.6633    1.1070   -2.6935 C.ar    1  UNL1        0.0000
     13 C           2.2914    1.7346   -3.7648 C.ar    1  UNL1        0.0000
     14 C           3.6845    1.9517   -3.7037 C.ar    1  UNL1        0.0000
     15 C           4.4210    1.5343   -2.5698 C.ar    1  UNL1        0.0000
     16 C           3.7657    0.9005   -1.4942 C.ar    1  UNL1        0.0000
     17 C           2.3855    0.7005   -1.5807 C.ar    1  UNL1        0.0000
     18 N           1.7179    0.1006   -0.5779 N.ar    1  UNL1        0.0000
     19 C           2.3004   -0.3457    0.5510 C.ar    1  UNL1        0.0000
     20 C           1.3959   -0.9860    1.5261 C.ar    1  UNL1        0.0000
     21 N           1.8417   -1.5315    2.6828 N.ar    1  UNL1        0.0000
     22 C           0.9837   -2.1524    3.5409 C.ar    1  UNL1        0.0000
     23 C           1.5503   -2.8285    4.7840 C.3     1  UNL1        0.0000
     24 C           2.0019   -1.7344    5.7752 C.3     1  UNL1        0.0000
     25 C           2.7805   -3.6826    4.4037 C.3     1  UNL1        0.0000
     26 C           0.5065   -3.7877    5.4260 C.3     1  UNL1        0.0000
     27 C          -0.8624   -3.1276    5.5420 C.3     1  UNL1        0.0000
     28 C          -1.4522   -2.7849    4.1444 C.3     1  UNL1        0.0000
     29 C          -2.6127   -1.7905    4.3659 C.3     1  UNL1        0.0000
     30 C          -2.0110   -4.0453    3.4478 C.3     1  UNL1        0.0000
     31 C          -0.4010   -2.1664    3.2298 C.ar    1  UNL1        0.0000
     32 N          -0.8010   -1.6195    2.0486 N.ar    1  UNL1        0.0000
     33 N           0.0710   -1.0555    1.2182 N.ar    1  UNL1        0.0000
     34 C           3.6898   -0.1781    0.7038 C.ar    1  UNL1        0.0000
     35 C           4.4239    0.4521   -0.3287 C.ar    1  UNL1        0.0000
     36 H          -4.6054    1.2736   -2.9171 H       1  UNL1        0.0000
     37 H          -5.1682    0.8121   -4.5541 H       1  UNL1        0.0000
     38 H          -4.3895   -0.4215   -3.5203 H       1  UNL1        0.0000
     39 H          -3.9578    1.6629   -6.1076 H       1  UNL1        0.0000
     40 H          -2.4714    2.4851   -5.7086 H       1  UNL1        0.0000
     41 H          -1.2846    0.1424   -6.2313 H       1  UNL1        0.0000
     42 H          -2.9178   -0.5054   -6.5425 H       1  UNL1        0.0000
     43 H          -3.2172    1.1140   -8.4273 H       1  UNL1        0.0000
     44 H          -1.7543    0.0821   -8.6504 H       1  UNL1        0.0000
     45 H          -1.5687    1.7919   -8.1006 H       1  UNL1        0.0000
     46 H          -0.4358    2.1949   -5.7027 H       1  UNL1        0.0000
     47 H           1.9322    2.6147   -5.7057 H       1  UNL1        0.0000
     48 H           4.1985    2.4382   -4.5233 H       1  UNL1        0.0000
     49 H           5.4897    1.7055   -2.5350 H       1  UNL1        0.0000
     50 H           2.7881   -1.0943    5.3197 H       1  UNL1        0.0000
     51 H           2.4212   -2.1928    6.6968 H       1  UNL1        0.0000
     52 H           1.1624   -1.0707    6.0653 H       1  UNL1        0.0000
     53 H           2.5026   -4.4621    3.6612 H       1  UNL1        0.0000
     54 H           3.2018   -4.1860    5.3008 H       1  UNL1        0.0000
     55 H           3.5818   -3.0544    3.9577 H       1  UNL1        0.0000
     56 H           0.3875   -4.7009    4.8055 H       1  UNL1        0.0000
     57 H           0.8668   -4.1222    6.4235 H       1  UNL1        0.0000
     58 H          -0.7375   -2.2070    6.1482 H       1  UNL1        0.0000
     59 H          -1.5705   -3.7799    6.0990 H       1  UNL1        0.0000
     60 H          -3.0968   -1.5177    3.4035 H       1  UNL1        0.0000
     61 H          -2.2418   -0.8561    4.8408 H       1  UNL1        0.0000
     62 H          -3.3890   -2.2350    5.0261 H       1  UNL1        0.0000
     63 H          -2.4793   -3.7795    2.4749 H       1  UNL1        0.0000
     64 H          -1.2125   -4.7865    3.2406 H       1  UNL1        0.0000
     65 H          -2.7863   -4.5306    4.0786 H       1  UNL1        0.0000
     66 H           4.1951   -0.5241    1.5964 H       1  UNL1        0.0000
     67 H           5.4930    0.5856   -0.2183 H       1  UNL1        0.0000
     68 EU         -0.5573   -0.1493   -0.8751 Eu      1  UNL1        0.0000
@<TRIPOS>BOND
     1     1     2    2
     2     2     3   am
     3     3     4    1
     4     3     5    1
     5     5     6    1
     6     6     7    1
     7     2     8    1
     8     8     9   ar
     9     9    10   ar
    10     8    11   ar
    11    11    12   ar
    12    12    13   ar
    13    10    13   ar
    14    13    14   ar
    15    14    15   ar
    16    15    16   ar
    17    16    17   ar
    18    12    17   ar
    19    17    18   ar
    20    18    19   ar
    21    19    20    1
    22    20    21   ar
    23    21    22   ar
    24    22    23    1
    25    23    24    1
    26    23    25    1
    27    23    26    1
    28    26    27    1
    29    27    28    1
    30    28    29    1
    31    28    30    1
    32    22    31   ar
    33    28    31    1
    34    31    32   ar
    35    32    33   ar
    36    20    33   ar
    37    19    34   ar
    38    34    35   ar
    39    16    35   ar
    40     4    36    1
    41     4    37    1
    42     4    38    1
    43     5    39    1
    44     5    40    1
    45     6    41    1
    46     6    42    1
    47     7    43    1
    48     7    44    1
    49     7    45    1
    50     9    46    1
    51    10    47    1
    52    14    48    1
    53    15    49    1
    54    24    50    1
    55    24    51    1
    56    24    52    1
    57    25    53    1
    58    25    54    1
    59    25    55    1
    60    26    56    1
    61    26    57    1
    62    27    58    1
    63    27    59    1
    64    29    60    1
    65    29    61    1
    66    29    62    1
    67    30    63    1
    68    30    64    1
    69    30    65    1
    70    34    66    1
    71    35    67    1
    72    68     1    1
    73    68    33    1
    74    68    18    1
    75    68    11    1
@<TRIPOS>MOLECULE
*****
 68 75 0 0 0
SMALL
GASTEIGER

@<TRIPOS>ATOM
      1 O          -2.1793    0.2827   -2.3692 O.2     1  UNL1        0.0000
      2 C          -1.9545    0.8233   -3.4630 C.2     1  UNL1        0.0000
      3 N          -3.0357    1.0014   -4.3114 N.am    1  UNL1        0.0000
      4 C          -4.3633    0.6473   -3.8089 C.3     1  UNL1        0.0000
      5 C          -2.9458    1.4897   -5.6825 C.3     1  UNL1        0.0000
      6 C          -2.2977    0.4221   -6.5858 C.3     1  UNL1        0.0000
      7 C          -2.2053    0.8963   -8.0321 C.3     1  UNL1        0.0000
      8 C          -0.4993    1.2084   -3.7249 C.ar    1  UNL1        0.0000
      9 C           0.0974    1.8653   -4.8382 C.ar    1  UNL1        0.0000
     10 C           1.4882    2.1193   -4.8499 C.ar    1  UNL1        0.0000
     11 N           0.3317    0.8764   -2.7160 N.ar    1  UNL1        0.0000
     12 C           1.6629    1.1039   -2.6945 C.ar    1  UNL1        0.0000
     13 C           2.2910    1.7334   -3.7649 C.ar    1  UNL1        0.0000
     14 C           3.6838    1.9512   -3.7033 C.ar    1  UNL1        0.0000
     15 C           4.4204    1.5331   -2.5698 C.ar    1  UNL1        0.0000
     16 C           3.7653    0.8972   -1.4947 C.ar    1  UNL1        0.0000
     17 C           2.3853    0.6966   -1.5820 C.ar    1  UNL1        0.0000
     18 N           1.7177    0.0958   -0.5797 N.ar    1  UNL1        0.0000
     19 C           2.3003   -0.3508    0.5490 C.ar    1  UNL1        0.0000
     20 C           1.3958   -0.9915    1.5239 C.ar    1  UNL1        0.0000
     21 N           1.8417   -1.5356    2.6812 N.ar    1  UNL1        0.0000
     22 C           0.9839   -2.1552    3.5404 C.ar    1  UNL1        0.0000
     23 C           1.5508   -2.8275    4.7854 C.3     1  UNL1        0.0000
     24 C           2.0038   -1.7301    5.7724 C.3     1  UNL1        0.0000
     25 C           2.7801   -3.6838    4.4075 C.3     1  UNL1        0.0000
     26 C           0.5068   -3.7834    5.4320 C.3     1  UNL1        0.0000
     27 C          -0.8620   -3.1227    5.5448 C.3     1  UNL1        0.0000
     28 C          -1.4518   -2.7866    4.1456 C.3     1  UNL1        0.0000
     29 C          -2.6134   -1.7925    4.3625 C.3     1  UNL1        0.0000
     30 C          -2.0088   -4.0502    3.4538 C.3     1  UNL1        0.0000
     31 C          -0.4008   -2.1702    3.2290 C.ar    1  UNL1        0.0000
     32 N          -0.8011   -1.6253    2.0469 N.ar    1  UNL1        0.0000
     33 N           0.0710   -1.0618    1.2158 N.ar    1  UNL1        0.0000
     34 C           3.6895   -0.1826    0.7022 C.ar    1  UNL1        0.0000
     35 C           4.4237    0.4487   -0.3297 C.ar    1  UNL1        0.0000
     36 H          -4.6057    1.2664   -2.9183 H       1  UNL1        0.0000
     37 H          -5.1677    0.8085   -4.5568 H       1  UNL1        0.0000
     38 H          -4.3881   -0.4270   -3.5261 H       1  UNL1        0.0000
     39 H          -3.9580    1.6660   -6.1071 H       1  UNL1        0.0000
     40 H          -2.4719    2.4872   -5.7056 H       1  UNL1        0.0000
     41 H          -1.2848    0.1460   -6.2362 H       1  UNL1        0.0000
     42 H          -2.9180   -0.5002   -6.5503 H       1  UNL1        0.0000
     43 H          -3.2167    1.1270   -8.4288 H       1  UNL1        0.0000
     44 H          -1.7538    0.0958   -8.6557 H       1  UNL1        0.0000
     45 H          -1.5682    1.8034   -8.0988 H       1  UNL1        0.0000
     46 H          -0.4362    2.1955   -5.7023 H       1  UNL1        0.0000
     47 H           1.9315    2.6162   -5.7044 H       1  UNL1        0.0000
     48 H           4.1977    2.4391   -4.5223 H       1  UNL1        0.0000
     49 H           5.4890    1.7049   -2.5346 H       1  UNL1        0.0000
     50 H           2.7901   -1.0921    5.3139 H       1  UNL1        0.0000
     51 H           2.4236   -2.1853    6.6953 H       1  UNL1        0.0000
     52 H           1.1649   -1.0649    6.0606 H       1  UNL1        0.0000
     53 H           2.5011   -4.4660    3.6682 H       1  UNL1        0.0000
     54 H           3.2018   -4.1841    5.3061 H       1  UNL1        0.0000
     55 H           3.5815   -3.0579    3.9584 H       1  UNL1        0.0000
     56 H           0.3876   -4.6996    4.8159 H       1  UNL1        0.0000
     57 H           0.8671   -4.1134    6.4310 H       1  UNL1        0.0000
     58 H          -0.7370   -2.1991    6.1466 H       1  UNL1        0.0000
     59 H          -1.5700   -3.7724    6.1048 H       1  UNL1        0.0000
     60 H          -3.0975   -1.5244    3.3989 H       1  UNL1        0.0000
     61 H          -2.2438   -0.8557    4.8336 H       1  UNL1        0.0000
     62 H          -3.3894   -2.2352    5.0243 H       1  UNL1        0.0000
     63 H          -2.4770   -3.7890    2.4796 H       1  UNL1        0.0000
     64 H          -1.2094   -4.7915    3.2498 H       1  UNL1        0.0000
     65 H          -2.7838   -4.5339    4.0864 H       1  UNL1        0.0000
     66 H           4.1948   -0.5290    1.5947 H       1  UNL1        0.0000
     67 H           5.4926    0.5828   -0.2189 H       1  UNL1        0.0000
     68 EU         -0.5575   -0.1547   -0.8774 Eu      1  UNL1        0.0000
@<TRIPOS>BOND
     1     1     2    2
     2     2     3   am
     3     3     4    1
     4     3     5    1
     5     5     6    1
     6     6     7    1
     7     2     8    1
     8     8     9   ar
     9     9    10   ar
    10     8    11   ar
    11    11    12   ar
    12    12    13   ar
    13    10    13   ar
    14    13    14   ar
    15    14    15   ar
    16    15    16   ar
    17    16    17   ar
    18    12    17   ar
    19    17    18   ar
    20    18    19   ar
    21    19    20    1
    22    20    21   ar
    23    21    22   ar
    24    22    23    1
    25    23    24    1
    26    23    25    1
    27    23    26    1
    28    26    27    1
    29    27    28    1
    30    28    29    1
    31    28    30    1
    32    22    31   ar
    33    28    31    1
    34    31    32   ar
    35    32    33   ar
    36    20    33   ar
    37    19    34   ar
    38    34    35   ar
    39    16    35   ar
    40     4    36    1
    41     4    37    1
    42     4    38    1
    43     5    39    1
    44     5    40    1
    45     6    41    1
    46     6    42    1
    47     7    43    1
    48     7    44    1
    49     7    45    1
    50     9    46    1
    51    10    47    1
    52    14    48    1
    53    15    49    1
    54    24    50    1
    55    24    51    1
    56    24    52    1
    57    25    53    1
    58    25    54    1
    59    25    55    1
    60    26    56    1
    61    26    57    1
    62    27    58    1
    63    27    59    1
    64    29    60    1
    65    29    61    1
    66    29    62    1
    67    30    63    1
    68    30    64    1
    69    30    65    1
    70    34    66    1
    71    35    67    1
    72    68     1    1
    73    68    33    1
    74    68    18    1
    75    68    11    1
@<TRIPOS>MOLECULE
*****
 68 75 0 0 0
SMALL
GASTEIGER

@<TRIPOS>ATOM
      1 O          -2.1791    0.2786   -2.3712 O.2     1  UNL1        0.0000
      2 C          -1.9550    0.8196   -3.4643 C.2     1  UNL1        0.0000
      3 N          -3.0357    0.9989   -4.3126 N.am    1  UNL1        0.0000
      4 C          -4.3634    0.6433   -3.8110 C.3     1  UNL1        0.0000
      5 C          -2.9463    1.4904   -5.6824 C.3     1  UNL1        0.0000
      6 C          -2.2980    0.4260   -6.5887 C.3     1  UNL1        0.0000
      7 C          -2.2051    0.9047   -8.0335 C.3     1  UNL1        0.0000
      8 C          -0.4993    1.2061   -3.7258 C.ar    1  UNL1        0.0000
      9 C           0.0971    1.8645   -4.8383 C.ar    1  UNL1        0.0000
     10 C           1.4878    2.1189   -4.8496 C.ar    1  UNL1        0.0000
     11 N           0.3312    0.8738   -2.7167 N.ar    1  UNL1        0.0000
     12 C           1.6624    1.1016   -2.6945 C.ar    1  UNL1        0.0000
     13 C           2.2906    1.7323   -3.7649 C.ar    1  UNL1        0.0000
     14 C           3.6833    1.9506   -3.7030 C.ar    1  UNL1        0.0000
     15 C           4.4199    1.5318   -2.5696 C.ar    1  UNL1        0.0000
     16 C           3.7650    0.8955   -1.4952 C.ar    1  UNL1        0.0000
     17 C           2.3847    0.6939   -1.5826 C.ar    1  UNL1        0.0000
     18 N           1.7174    0.0925   -0.5808 N.ar    1  UNL1        0.0000
     19 C           2.3001   -0.3541    0.5479 C.ar    1  UNL1        0.0000
     20 C           1.3958   -0.9952    1.5226 C.ar    1  UNL1        0.0000
     21 N           1.8417   -1.5382    2.6804 N.ar    1  UNL1        0.0000
     22 C           0.9841   -2.1571    3.5401 C.ar    1  UNL1        0.0000
     23 C           1.5512   -2.8267    4.7866 C.3     1  UNL1        0.0000
     24 C           2.0052   -1.7269    5.7703 C.3     1  UNL1        0.0000
     25 C           2.7799   -3.6846    4.4102 C.3     1  UNL1        0.0000
     26 C           0.5071   -3.7802    5.4363 C.3     1  UNL1        0.0000
     27 C          -0.8616   -3.1190    5.5468 C.3     1  UNL1        0.0000
     28 C          -1.4513   -2.7877    4.1463 C.3     1  UNL1        0.0000
     29 C          -2.6139   -1.7940    4.3601 C.3     1  UNL1        0.0000
     30 C          -2.0072   -4.0539    3.4581 C.3     1  UNL1        0.0000
     31 C          -0.4005   -2.1730    3.2287 C.ar    1  UNL1        0.0000
     32 N          -0.8007   -1.6296    2.0458 N.ar    1  UNL1        0.0000
     33 N           0.0709   -1.0660    1.2145 N.ar    1  UNL1        0.0000
     34 C           3.6892   -0.1857    0.7012 C.ar    1  UNL1        0.0000
     35 C           4.4232    0.4463   -0.3302 C.ar    1  UNL1        0.0000
     36 H          -4.6063    1.2606   -2.9192 H       1  UNL1        0.0000
     37 H          -5.1678    0.8057   -4.5585 H       1  UNL1        0.0000
     38 H          -4.3878   -0.4315   -3.5302 H       1  UNL1        0.0000
     39 H          -3.9584    1.6684   -6.1065 H       1  UNL1        0.0000
     40 H          -2.4723    2.4887   -5.7027 H       1  UNL1        0.0000
     41 H          -1.2852    0.1487   -6.2397 H       1  UNL1        0.0000
     42 H          -2.9184   -0.4963   -6.5561 H       1  UNL1        0.0000
     43 H          -3.2164    1.1367   -8.4298 H       1  UNL1        0.0000
     44 H          -1.7536    0.1061   -8.6595 H       1  UNL1        0.0000
     45 H          -1.5679    1.8118   -8.0973 H       1  UNL1        0.0000
     46 H          -0.4364    2.1953   -5.7022 H       1  UNL1        0.0000
     47 H           1.9311    2.6169   -5.7035 H       1  UNL1        0.0000
     48 H           4.1971    2.4392   -4.5217 H       1  UNL1        0.0000
     49 H           5.4885    1.7040   -2.5341 H       1  UNL1        0.0000
     50 H           2.7916   -1.0904    5.3097 H       1  UNL1        0.0000
     51 H           2.4253   -2.1797    6.6942 H       1  UNL1        0.0000
     52 H           1.1667   -1.0605    6.0572 H       1  UNL1        0.0000
     53 H           2.5000   -4.4687    3.6733 H       1  UNL1        0.0000
     54 H           3.2018   -4.1826    5.3100 H       1  UNL1        0.0000
     55 H           3.5813   -3.0604    3.9590 H       1  UNL1        0.0000
     56 H           0.3878   -4.6985    4.8235 H       1  UNL1        0.0000
     57 H           0.8674   -4.1069    6.4364 H       1  UNL1        0.0000
     58 H          -0.7367   -2.1933    6.1453 H       1  UNL1        0.0000
     59 H          -1.5697   -3.7668    6.1089 H       1  UNL1        0.0000
     60 H          -3.0980   -1.5293    3.3955 H       1  UNL1        0.0000
     61 H          -2.2452   -0.8554    4.8283 H       1  UNL1        0.0000
     62 H          -3.3896   -2.2354    5.0230 H       1  UNL1        0.0000
     63 H          -2.4752   -3.7958    2.4831 H       1  UNL1        0.0000
     64 H          -1.2072   -4.7951    3.2565 H       1  UNL1        0.0000
     65 H          -2.7818   -4.5363    4.0920 H       1  UNL1        0.0000
     66 H           4.1946   -0.5322    1.5936 H       1  UNL1        0.0000
     67 H           5.4921    0.5807   -0.2194 H       1  UNL1        0.0000
     68 EU         -0.5576   -0.1588   -0.8789 Eu      1  UNL1        0.0000
@<TRIPOS>BOND
     1     1     2    2
     2     2     3   am
     3     3     4    1
     4     3     5    1
     5     5     6    1
     6     6     7    1
     7     2     8    1
     8     8     9   ar
     9     9    10   ar
    10     8    11   ar
    11    11    12   ar
    12    12    13   ar
    13    10    13   ar
    14    13    14   ar
    15    14    15   ar
    16    15    16   ar
    17    16    17   ar
    18    12    17   ar
    19    17    18   ar
    20    18    19   ar
    21    19    20    1
    22    20    21   ar
    23    21    22   ar
    24    22    23    1
    25    23    24    1
    26    23    25    1
    27    23    26    1
    28    26    27    1
    29    27    28    1
    30    28    29    1
    31    28    30    1
    32    22    31   ar
    33    28    31    1
    34    31    32   ar
    35    32    33   ar
    36    20    33   ar
    37    19    34   ar
    38    34    35   ar
    39    16    35   ar
    40     4    36    1
    41     4    37    1
    42     4    38    1
    43     5    39    1
    44     5    40    1
    45     6    41    1
    46     6    42    1
    47     7    43    1
    48     7    44    1
    49     7    45    1
    50     9    46    1
    51    10    47    1
    52    14    48    1
    53    15    49    1
    54    24    50    1
    55    24    51    1
    56    24    52    1
    57    25    53    1
    58    25    54    1
    59    25    55    1
    60    26    56    1
    61    26    57    1
    62    27    58    1
    63    27    59    1
    64    29    60    1
    65    29    61    1
    66    29    62    1
    67    30    63    1
    68    30    64    1
    69    30    65    1
    70    34    66    1
    71    35    67    1
    72    68     1    1
    73    68    33    1
    74    68    18    1
    75    68    11    1
@<TRIPOS>MOLECULE
*****
 68 75 0 0 0
SMALL
GASTEIGER

@<TRIPOS>ATOM
      1 O          -2.1799    0.2728   -2.3742 O.2     1  UNL1        0.0000
      2 C          -1.9550    0.8158   -3.4665 C.2     1  UNL1        0.0000
      3 N          -3.0361    0.9963   -4.3145 N.am    1  UNL1        0.0000
      4 C          -4.3634    0.6375   -3.8146 C.3     1  UNL1        0.0000
      5 C          -2.9468    1.4933   -5.6828 C.3     1  UNL1        0.0000
      6 C          -2.2986    0.4327   -6.5939 C.3     1  UNL1        0.0000
      7 C          -2.2049    0.9189   -8.0360 C.3     1  UNL1        0.0000
      8 C          -0.4999    1.2034   -3.7270 C.ar    1  UNL1        0.0000
      9 C           0.0960    1.8634   -4.8382 C.ar    1  UNL1        0.0000
     10 C           1.4873    2.1189   -4.8492 C.ar    1  UNL1        0.0000
     11 N           0.3309    0.8702   -2.7183 N.ar    1  UNL1        0.0000
     12 C           1.6622    1.0984   -2.6960 C.ar    1  UNL1        0.0000
     13 C           2.2899    1.7307   -3.7650 C.ar    1  UNL1        0.0000
     14 C           3.6825    1.9499   -3.7027 C.ar    1  UNL1        0.0000
     15 C           4.4189    1.5300   -2.5696 C.ar    1  UNL1        0.0000
     16 C           3.7643    0.8918   -1.4964 C.ar    1  UNL1        0.0000
     17 C           2.3842    0.6895   -1.5845 C.ar    1  UNL1        0.0000
     18 N           1.7170    0.0868   -0.5832 N.ar    1  UNL1        0.0000
     19 C           2.2997   -0.3603    0.5453 C.ar    1  UNL1        0.0000
     20 C           1.3957   -1.0018    1.5199 C.ar    1  UNL1        0.0000
     21 N           1.8417   -1.5427    2.6786 N.ar    1  UNL1        0.0000
     22 C           0.9844   -2.1604    3.5394 C.ar    1  UNL1        0.0000
     23 C           1.5518   -2.8252    4.7884 C.3     1  UNL1        0.0000
     24 C           2.0073   -1.7212    5.7669 C.3     1  UNL1        0.0000
     25 C           2.7795   -3.6858    4.4150 C.3     1  UNL1        0.0000
     26 C           0.5076   -3.7749    5.4436 C.3     1  UNL1        0.0000
     27 C          -0.8611   -3.1130    5.5501 C.3     1  UNL1        0.0000
     28 C          -1.4506   -2.7897    4.1476 C.3     1  UNL1        0.0000
     29 C          -2.6147   -1.7968    4.3560 C.3     1  UNL1        0.0000
     30 C          -2.0044   -4.0601    3.4654 C.3     1  UNL1        0.0000
     31 C          -0.4002   -2.1778    3.2278 C.ar    1  UNL1        0.0000
     32 N          -0.8004   -1.6370    2.0436 N.ar    1  UNL1        0.0000
     33 N           0.0710   -1.0739    1.2116 N.ar    1  UNL1        0.0000
     34 C           3.6887   -0.1912    0.6992 C.ar    1  UNL1        0.0000
     35 C           4.4225    0.4420   -0.3316 C.ar    1  UNL1        0.0000
     36 H          -4.6073    1.2512   -2.9207 H       1  UNL1        0.0000
     37 H          -5.1678    0.8013   -4.5618 H       1  UNL1        0.0000
     38 H          -4.3865   -0.4384   -3.5376 H       1  UNL1        0.0000
     39 H          -3.9592    1.6724   -6.1058 H       1  UNL1        0.0000
     40 H          -2.4732    2.4915   -5.6989 H       1  UNL1        0.0000
     41 H          -1.2862    0.1531   -6.2458 H       1  UNL1        0.0000
     42 H          -2.9194   -0.4896   -6.5661 H       1  UNL1        0.0000
     43 H          -3.2160    1.1536   -8.4316 H       1  UNL1        0.0000
     44 H          -1.7534    0.1236   -8.6662 H       1  UNL1        0.0000
     45 H          -1.5675    1.8263   -8.0947 H       1  UNL1        0.0000
     46 H          -0.4372    2.1958   -5.7016 H       1  UNL1        0.0000
     47 H           1.9299    2.6185   -5.7024 H       1  UNL1        0.0000
     48 H           4.1961    2.4402   -4.5204 H       1  UNL1        0.0000
     49 H           5.4874    1.7029   -2.5337 H       1  UNL1        0.0000
     50 H           2.7937   -1.0874    5.3028 H       1  UNL1        0.0000
     51 H           2.4280   -2.1701    6.6924 H       1  UNL1        0.0000
     52 H           1.1694   -1.0532    6.0515 H       1  UNL1        0.0000
     53 H           2.4983   -4.4731    3.6821 H       1  UNL1        0.0000
     54 H           3.2018   -4.1798    5.3168 H       1  UNL1        0.0000
     55 H           3.5809   -3.0642    3.9602 H       1  UNL1        0.0000
     56 H           0.3881   -4.6967    4.8362 H       1  UNL1        0.0000
     57 H           0.8678   -4.0959    6.4455 H       1  UNL1        0.0000
     58 H          -0.7364   -2.1838    6.1432 H       1  UNL1        0.0000
     59 H          -1.5693   -3.7577    6.1159 H       1  UNL1        0.0000
     60 H          -3.0990   -1.5377    3.3899 H       1  UNL1        0.0000
     61 H          -2.2477   -0.8552    4.8196 H       1  UNL1        0.0000
     62 H          -3.3901   -2.2359    5.0208 H       1  UNL1        0.0000
     63 H          -2.4723   -3.8075    2.4889 H       1  UNL1        0.0000
     64 H          -1.2033   -4.8012    3.2678 H       1  UNL1        0.0000
     65 H          -2.7786   -4.5404    4.1014 H       1  UNL1        0.0000
     66 H           4.1940   -0.5378    1.5915 H       1  UNL1        0.0000
     67 H           5.4913    0.5769   -0.2203 H       1  UNL1        0.0000
     68 EU         -0.5579   -0.1654   -0.8816 Eu      1  UNL1        0.0000
@<TRIPOS>BOND
     1     1     2    2
     2     2     3   am
     3     3     4    1
     4     3     5    1
     5     5     6    1
     6     6     7    1
     7     2     8    1
     8     8     9   ar
     9     9    10   ar
    10     8    11   ar
    11    11    12   ar
    12    12    13   ar
    13    10    13   ar
    14    13    14   ar
    15    14    15   ar
    16    15    16   ar
    17    16    17   ar
    18    12    17   ar
    19    17    18   ar
    20    18    19   ar
    21    19    20    1
    22    20    21   ar
    23    21    22   ar
    24    22    23    1
    25    23    24    1
    26    23    25    1
    27    23    26    1
    28    26    27    1
    29    27    28    1
    30    28    29    1
    31    28    30    1
    32    22    31   ar
    33    28    31    1
    34    31    32   ar
    35    32    33   ar
    36    20    33   ar
    37    19    34   ar
    38    34    35   ar
    39    16    35   ar
    40     4    36    1
    41     4    37    1
    42     4    38    1
    43     5    39    1
    44     5    40    1
    45     6    41    1
    46     6    42    1
    47     7    43    1
    48     7    44    1
    49     7    45    1
    50     9    46    1
    51    10    47    1
    52    14    48    1
    53    15    49    1
    54    24    50    1
    55    24    51    1
    56    24    52    1
    57    25    53    1
    58    25    54    1
    59    25    55    1
    60    26    56    1
    61    26    57    1
    62    27    58    1
    63    27    59    1
    64    29    60    1
    65    29    61    1
    66    29    62    1
    67    30    63    1
    68    30    64    1
    69    30    65    1
    70    34    66    1
    71    35    67    1
    72    68     1    1
    73    68    33    1
    74    68    18    1
    75    68    11    1
@<TRIPOS>MOLECULE
*****
 68 75 0 0 0
SMALL
GASTEIGER

@<TRIPOS>ATOM
      1 O          -2.1800    0.2676   -2.3770 O.2     1  UNL1        0.0000
      2 C          -1.9554    0.8121   -3.4686 C.2     1  UNL1        0.0000
      3 N          -3.0364    0.9937   -4.3163 N.am    1  UNL1        0.0000
      4 C          -4.3635    0.6321   -3.8177 C.3     1  UNL1        0.0000
      5 C          -2.9474    1.4955   -5.6829 C.3     1  UNL1        0.0000
      6 C          -2.2993    0.4387   -6.5985 C.3     1  UNL1        0.0000
      7 C          -2.2049    0.9320   -8.0383 C.3     1  UNL1        0.0000
      8 C          -0.5003    1.2004   -3.7285 C.ar    1  UNL1        0.0000
      9 C           0.0959    1.8624   -4.8388 C.ar    1  UNL1        0.0000
     10 C           1.4863    2.1181   -4.8491 C.ar    1  UNL1        0.0000
     11 N           0.3305    0.8658   -2.7198 N.ar    1  UNL1        0.0000
     12 C           1.6614    1.0952   -2.6971 C.ar    1  UNL1        0.0000
     13 C           2.2890    1.7293   -3.7653 C.ar    1  UNL1        0.0000
     14 C           3.6814    1.9490   -3.7023 C.ar    1  UNL1        0.0000
     15 C           4.4181    1.5282   -2.5698 C.ar    1  UNL1        0.0000
     16 C           3.7635    0.8887   -1.4972 C.ar    1  UNL1        0.0000
     17 C           2.3835    0.6856   -1.5857 C.ar    1  UNL1        0.0000
     18 N           1.7164    0.0817   -0.5852 N.ar    1  UNL1        0.0000
     19 C           2.2993   -0.3659    0.5431 C.ar    1  UNL1        0.0000
     20 C           1.3955   -1.0079    1.5174 C.ar    1  UNL1        0.0000
     21 N           1.8420   -1.5472    2.6767 N.ar    1  UNL1        0.0000
     22 C           0.9845   -2.1635    3.5388 C.ar    1  UNL1        0.0000
     23 C           1.5524   -2.8238    4.7902 C.3     1  UNL1        0.0000
     24 C           2.0091   -1.7160    5.7638 C.3     1  UNL1        0.0000
     25 C           2.7793   -3.6865    4.4195 C.3     1  UNL1        0.0000
     26 C           0.5080   -3.7700    5.4500 C.3     1  UNL1        0.0000
     27 C          -0.8607   -3.1075    5.5530 C.3     1  UNL1        0.0000
     28 C          -1.4499   -2.7916    4.1486 C.3     1  UNL1        0.0000
     29 C          -2.6156   -1.7993    4.3521 C.3     1  UNL1        0.0000
     30 C          -2.0018   -4.0657    3.4719 C.3     1  UNL1        0.0000
     31 C          -0.3996   -2.1824    3.2268 C.ar    1  UNL1        0.0000
     32 N          -0.8001   -1.6437    2.0416 N.ar    1  UNL1        0.0000
     33 N           0.0708   -1.0808    1.2093 N.ar    1  UNL1        0.0000
     34 C           3.6881   -0.1960    0.6973 C.ar    1  UNL1        0.0000
     35 C           4.4218    0.4382   -0.3329 C.ar    1  UNL1        0.0000
     36 H          -4.6080    1.2428   -2.9219 H       1  UNL1        0.0000
     37 H          -5.1678    0.7975   -4.5647 H       1  UNL1        0.0000
     38 H          -4.3855   -0.4447   -3.5441 H       1  UNL1        0.0000
     39 H          -3.9598    1.6763   -6.1051 H       1  UNL1        0.0000
     40 H          -2.4737    2.4938   -5.6951 H       1  UNL1        0.0000
     41 H          -1.2871    0.1570   -6.2514 H       1  UNL1        0.0000
     42 H          -2.9204   -0.4834   -6.5752 H       1  UNL1        0.0000
     43 H          -3.2157    1.1691   -8.4331 H       1  UNL1        0.0000
     44 H          -1.7534    0.1398   -8.6723 H       1  UNL1        0.0000
     45 H          -1.5671    1.8395   -8.0923 H       1  UNL1        0.0000
     46 H          -0.4375    2.1955   -5.7018 H       1  UNL1        0.0000
     47 H           1.9294    2.6191   -5.7015 H       1  UNL1        0.0000
     48 H           4.1950    2.4405   -4.5194 H       1  UNL1        0.0000
     49 H           5.4864    1.7018   -2.5336 H       1  UNL1        0.0000
     50 H           2.7956   -1.0844    5.2967 H       1  UNL1        0.0000
     51 H           2.4302   -2.1612    6.6909 H       1  UNL1        0.0000
     52 H           1.1716   -1.0464    6.0462 H       1  UNL1        0.0000
     53 H           2.4971   -4.4768    3.6903 H       1  UNL1        0.0000
     54 H           3.2019   -4.1770    5.3232 H       1  UNL1        0.0000
     55 H           3.5807   -3.0674    3.9615 H       1  UNL1        0.0000
     56 H           0.3886   -4.6948    4.8476 H       1  UNL1        0.0000
     57 H           0.8682   -4.0858    6.4537 H       1  UNL1        0.0000
     58 H          -0.7361   -2.1751    6.1412 H       1  UNL1        0.0000
     59 H          -1.5688   -3.7494    6.1219 H       1  UNL1        0.0000
     60 H          -3.0998   -1.5454    3.3846 H       1  UNL1        0.0000
     61 H          -2.2500   -0.8551    4.8114 H       1  UNL1        0.0000
     62 H          -3.3906   -2.2364    5.0185 H       1  UNL1        0.0000
     63 H          -2.4696   -3.8180    2.4940 H       1  UNL1        0.0000
     64 H          -1.1997   -4.8066    3.2779 H       1  UNL1        0.0000
     65 H          -2.7756   -4.5442    4.1098 H       1  UNL1        0.0000
     66 H           4.1934   -0.5429    1.5895 H       1  UNL1        0.0000
     67 H           5.4904    0.5738   -0.2213 H       1  UNL1        0.0000
     68 EU         -0.5585   -0.1715   -0.8840 Eu      1  UNL1        0.0000
@<TRIPOS>BOND
     1     1     2    2
     2     2     3   am
     3     3     4    1
     4     3     5    1
     5     5     6    1
     6     6     7    1
     7     2     8    1
     8     8     9   ar
     9     9    10   ar
    10     8    11   ar
    11    11    12   ar
    12    12    13   ar
    13    10    13   ar
    14    13    14   ar
    15    14    15   ar
    16    15    16   ar
    17    16    17   ar
    18    12    17   ar
    19    17    18   ar
    20    18    19   ar
    21    19    20    1
    22    20    21   ar
    23    21    22   ar
    24    22    23    1
    25    23    24    1
    26    23    25    1
    27    23    26    1
    28    26    27    1
    29    27    28    1
    30    28    29    1
    31    28    30    1
    32    22    31   ar
    33    28    31    1
    34    31    32   ar
    35    32    33   ar
    36    20    33   ar
    37    19    34   ar
    38    34    35   ar
    39    16    35   ar
    40     4    36    1
    41     4    37    1
    42     4    38    1
    43     5    39    1
    44     5    40    1
    45     6    41    1
    46     6    42    1
    47     7    43    1
    48     7    44    1
    49     7    45    1
    50     9    46    1
    51    10    47    1
    52    14    48    1
    53    15    49    1
    54    24    50    1
    55    24    51    1
    56    24    52    1
    57    25    53    1
    58    25    54    1
    59    25    55    1
    60    26    56    1
    61    26    57    1
    62    27    58    1
    63    27    59    1
    64    29    60    1
    65    29    61    1
    66    29    62    1
    67    30    63    1
    68    30    64    1
    69    30    65    1
    70    34    66    1
    71    35    67    1
    72    68     1    1
    73    68    33    1
    74    68    18    1
    75    68    11    1
@<TRIPOS>MOLECULE
*****
 68 75 0 0 0
SMALL
GASTEIGER

@<TRIPOS>ATOM
      1 O          -2.1802    0.2656   -2.3778 O.2     1  UNL1        0.0000
      2 C          -1.9556    0.8106   -3.4692 C.2     1  UNL1        0.0000
      3 N          -3.0366    0.9928   -4.3170 N.am    1  UNL1        0.0000
      4 C          -4.3635    0.6303   -3.8188 C.3     1  UNL1        0.0000
      5 C          -2.9476    1.4963   -5.6829 C.3     1  UNL1        0.0000
      6 C          -2.2996    0.4407   -6.6001 C.3     1  UNL1        0.0000
      7 C          -2.2050    0.9365   -8.0391 C.3     1  UNL1        0.0000
      8 C          -0.5007    1.1995   -3.7286 C.ar    1  UNL1        0.0000
      9 C           0.0955    1.8619   -4.8387 C.ar    1  UNL1        0.0000
     10 C           1.4858    2.1179   -4.8490 C.ar    1  UNL1        0.0000
     11 N           0.3302    0.8647   -2.7202 N.ar    1  UNL1        0.0000
     12 C           1.6611    1.0942   -2.6973 C.ar    1  UNL1        0.0000
     13 C           2.2885    1.7287   -3.7653 C.ar    1  UNL1        0.0000
     14 C           3.6811    1.9487   -3.7023 C.ar    1  UNL1        0.0000
     15 C           4.4177    1.5277   -2.5699 C.ar    1  UNL1        0.0000
     16 C           3.7632    0.8877   -1.4975 C.ar    1  UNL1        0.0000
     17 C           2.3833    0.6845   -1.5862 C.ar    1  UNL1        0.0000
     18 N           1.7162    0.0799   -0.5857 N.ar    1  UNL1        0.0000
     19 C           2.2992   -0.3676    0.5423 C.ar    1  UNL1        0.0000
     20 C           1.3956   -1.0099    1.5166 C.ar    1  UNL1        0.0000
     21 N           1.8419   -1.5484    2.6760 N.ar    1  UNL1        0.0000
     22 C           0.9849   -2.1644    3.5387 C.ar    1  UNL1        0.0000
     23 C           1.5526   -2.8233    4.7909 C.3     1  UNL1        0.0000
     24 C           2.0096   -1.7142    5.7627 C.3     1  UNL1        0.0000
     25 C           2.7792   -3.6868    4.4211 C.3     1  UNL1        0.0000
     26 C           0.5082   -3.7683    5.4522 C.3     1  UNL1        0.0000
     27 C          -0.8605   -3.1057    5.5539 C.3     1  UNL1        0.0000
     28 C          -1.4497   -2.7923    4.1489 C.3     1  UNL1        0.0000
     29 C          -2.6157   -1.8002    4.3506 C.3     1  UNL1        0.0000
     30 C          -2.0009   -4.0677    3.4741 C.3     1  UNL1        0.0000
     31 C          -0.3997   -2.1836    3.2264 C.ar    1  UNL1        0.0000
     32 N          -0.8000   -1.6463    2.0410 N.ar    1  UNL1        0.0000
     33 N           0.0711   -1.0831    1.2081 N.ar    1  UNL1        0.0000
     34 C           3.6880   -0.1977    0.6967 C.ar    1  UNL1        0.0000
     35 C           4.4217    0.4371   -0.3333 C.ar    1  UNL1        0.0000
     36 H          -4.6083    1.2400   -2.9224 H       1  UNL1        0.0000
     37 H          -5.1679    0.7962   -4.5656 H       1  UNL1        0.0000
     38 H          -4.3853   -0.4467   -3.5463 H       1  UNL1        0.0000
     39 H          -3.9601    1.6775   -6.1048 H       1  UNL1        0.0000
     40 H          -2.4740    2.4946   -5.6939 H       1  UNL1        0.0000
     41 H          -1.2875    0.1583   -6.2533 H       1  UNL1        0.0000
     42 H          -2.9209   -0.4813   -6.5783 H       1  UNL1        0.0000
     43 H          -3.2156    1.1745   -8.4335 H       1  UNL1        0.0000
     44 H          -1.7535    0.1453   -8.6744 H       1  UNL1        0.0000
     45 H          -1.5670    1.8439   -8.0914 H       1  UNL1        0.0000
     46 H          -0.4379    2.1953   -5.7017 H       1  UNL1        0.0000
     47 H           1.9287    2.6192   -5.7012 H       1  UNL1        0.0000
     48 H           4.1946    2.4404   -4.5192 H       1  UNL1        0.0000
     49 H           5.4860    1.7015   -2.5335 H       1  UNL1        0.0000
     50 H           2.7961   -1.0834    5.2946 H       1  UNL1        0.0000
     51 H           2.4309   -2.1581    6.6904 H       1  UNL1        0.0000
     52 H           1.1723   -1.0441    6.0443 H       1  UNL1        0.0000
     53 H           2.4968   -4.4781    3.6930 H       1  UNL1        0.0000
     54 H           3.2020   -4.1760    5.3253 H       1  UNL1        0.0000
     55 H           3.5808   -3.0684    3.9619 H       1  UNL1        0.0000
     56 H           0.3888   -4.6942    4.8514 H       1  UNL1        0.0000
     57 H           0.8683   -4.0824    6.4564 H       1  UNL1        0.0000
     58 H          -0.7360   -2.1722    6.1404 H       1  UNL1        0.0000
     59 H          -1.5686   -3.7467    6.1239 H       1  UNL1        0.0000
     60 H          -3.1001   -1.5480    3.3828 H       1  UNL1        0.0000
     61 H          -2.2508   -0.8551    4.8087 H       1  UNL1        0.0000
     62 H          -3.3907   -2.2366    5.0178 H       1  UNL1        0.0000
     63 H          -2.4686   -3.8216    2.4958 H       1  UNL1        0.0000
     64 H          -1.1985   -4.8085    3.2813 H       1  UNL1        0.0000
     65 H          -2.7745   -4.5455    4.1126 H       1  UNL1        0.0000
     66 H           4.1933   -0.5448    1.5888 H       1  UNL1        0.0000
     67 H           5.4902    0.5728   -0.2215 H       1  UNL1        0.0000
     68 EU         -0.5587   -0.1736   -0.8848 Eu      1  UNL1        0.0000
@<TRIPOS>BOND
     1     1     2    2
     2     2     3   am
     3     3     4    1
     4     3     5    1
     5     5     6    1
     6     6     7    1
     7     2     8    1
     8     8     9   ar
     9     9    10   ar
    10     8    11   ar
    11    11    12   ar
    12    12    13   ar
    13    10    13   ar
    14    13    14   ar
    15    14    15   ar
    16    15    16   ar
    17    16    17   ar
    18    12    17   ar
    19    17    18   ar
    20    18    19   ar
    21    19    20    1
    22    20    21   ar
    23    21    22   ar
    24    22    23    1
    25    23    24    1
    26    23    25    1
    27    23    26    1
    28    26    27    1
    29    27    28    1
    30    28    29    1
    31    28    30    1
    32    22    31   ar
    33    28    31    1
    34    31    32   ar
    35    32    33   ar
    36    20    33   ar
    37    19    34   ar
    38    34    35   ar
    39    16    35   ar
    40     4    36    1
    41     4    37    1
    42     4    38    1
    43     5    39    1
    44     5    40    1
    45     6    41    1
    46     6    42    1
    47     7    43    1
    48     7    44    1
    49     7    45    1
    50     9    46    1
    51    10    47    1
    52    14    48    1
    53    15    49    1
    54    24    50    1
    55    24    51    1
    56    24    52    1
    57    25    53    1
    58    25    54    1
    59    25    55    1
    60    26    56    1
    61    26    57    1
    62    27    58    1
    63    27    59    1
    64    29    60    1
    65    29    61    1
    66    29    62    1
    67    30    63    1
    68    30    64    1
    69    30    65    1
    70    34    66    1
    71    35    67    1
    72    68     1    1
    73    68    33    1
    74    68    18    1
    75    68    11    1
@<TRIPOS>MOLECULE
*****
 68 75 0 0 0
SMALL
GASTEIGER

@<TRIPOS>ATOM
      1 O          -2.1802    0.2647   -2.3783 O.2     1  UNL1        0.0000
      2 C          -1.9556    0.8100   -3.4695 C.2     1  UNL1        0.0000
      3 N          -3.0366    0.9923   -4.3173 N.am    1  UNL1        0.0000
      4 C          -4.3636    0.6294   -3.8193 C.3     1  UNL1        0.0000
      5 C          -2.9477    1.4967   -5.6829 C.3     1  UNL1        0.0000
      6 C          -2.2998    0.4419   -6.6009 C.3     1  UNL1        0.0000
      7 C          -2.2050    0.9388   -8.0394 C.3     1  UNL1        0.0000
      8 C          -0.5007    1.1989   -3.7288 C.ar    1  UNL1        0.0000
      9 C           0.0955    1.8618   -4.8387 C.ar    1  UNL1        0.0000
     10 C           1.4858    2.1178   -4.8489 C.ar    1  UNL1        0.0000
     11 N           0.3302    0.8640   -2.7205 N.ar    1  UNL1        0.0000
     12 C           1.6611    1.0936   -2.6975 C.ar    1  UNL1        0.0000
     13 C           2.2885    1.7285   -3.7654 C.ar    1  UNL1        0.0000
     14 C           3.6809    1.9484   -3.7022 C.ar    1  UNL1        0.0000
     15 C           4.4178    1.5271   -2.5701 C.ar    1  UNL1        0.0000
     16 C           3.7632    0.8870   -1.4975 C.ar    1  UNL1        0.0000
     17 C           2.3834    0.6837   -1.5865 C.ar    1  UNL1        0.0000
     18 N           1.7162    0.0791   -0.5861 N.ar    1  UNL1        0.0000
     19 C           2.2993   -0.3686    0.5419 C.ar    1  UNL1        0.0000
     20 C           1.3956   -1.0108    1.5162 C.ar    1  UNL1        0.0000
     21 N           1.8419   -1.5491    2.6761 N.ar    1  UNL1        0.0000
     22 C           0.9850   -2.1648    3.5386 C.ar    1  UNL1        0.0000
     23 C           1.5527   -2.8231    4.7910 C.3     1  UNL1        0.0000
     24 C           2.0099   -1.7133    5.7622 C.3     1  UNL1        0.0000
     25 C           2.7792   -3.6869    4.4219 C.3     1  UNL1        0.0000
     26 C           0.5083   -3.7674    5.4534 C.3     1  UNL1        0.0000
     27 C          -0.8605   -3.1048    5.5544 C.3     1  UNL1        0.0000
     28 C          -1.4496   -2.7927    4.1492 C.3     1  UNL1        0.0000
     29 C          -2.6159   -1.8007    4.3500 C.3     1  UNL1        0.0000
     30 C          -2.0004   -4.0686    3.4752 C.3     1  UNL1        0.0000
     31 C          -0.3994   -2.1844    3.2265 C.ar    1  UNL1        0.0000
     32 N          -0.8000   -1.6471    2.0407 N.ar    1  UNL1        0.0000
     33 N           0.0708   -1.0840    1.2081 N.ar    1  UNL1        0.0000
     34 C           3.6878   -0.1988    0.6964 C.ar    1  UNL1        0.0000
     35 C           4.4217    0.4362   -0.3337 C.ar    1  UNL1        0.0000
     36 H          -4.6085    1.2386   -2.9226 H       1  UNL1        0.0000
     37 H          -5.1679    0.7956   -4.5661 H       1  UNL1        0.0000
     38 H          -4.3851   -0.4478   -3.5474 H       1  UNL1        0.0000
     39 H          -3.9602    1.6782   -6.1046 H       1  UNL1        0.0000
     40 H          -2.4741    2.4950   -5.6932 H       1  UNL1        0.0000
     41 H          -1.2877    0.1590   -6.2543 H       1  UNL1        0.0000
     42 H          -2.9212   -0.4801   -6.5799 H       1  UNL1        0.0000
     43 H          -3.2156    1.1773   -8.4338 H       1  UNL1        0.0000
     44 H          -1.7535    0.1482   -8.6755 H       1  UNL1        0.0000
     45 H          -1.5670    1.8462   -8.0910 H       1  UNL1        0.0000
     46 H          -0.4379    2.1954   -5.7015 H       1  UNL1        0.0000
     47 H           1.9287    2.6193   -5.7009 H       1  UNL1        0.0000
     48 H           4.1943    2.4406   -4.5190 H       1  UNL1        0.0000
     49 H           5.4859    1.7012   -2.5334 H       1  UNL1        0.0000
     50 H           2.7964   -1.0829    5.2935 H       1  UNL1        0.0000
     51 H           2.4313   -2.1566    6.6902 H       1  UNL1        0.0000
     52 H           1.1727   -1.0430    6.0434 H       1  UNL1        0.0000
     53 H           2.4966   -4.4787    3.6944 H       1  UNL1        0.0000
     54 H           3.2021   -4.1755    5.3264 H       1  UNL1        0.0000
     55 H           3.5807   -3.0690    3.9622 H       1  UNL1        0.0000
     56 H           0.3889   -4.6939    4.8534 H       1  UNL1        0.0000
     57 H           0.8684   -4.0807    6.4579 H       1  UNL1        0.0000
     58 H          -0.7360   -2.1708    6.1401 H       1  UNL1        0.0000
     59 H          -1.5685   -3.7453    6.1249 H       1  UNL1        0.0000
     60 H          -3.1002   -1.5494    3.3819 H       1  UNL1        0.0000
     61 H          -2.2511   -0.8551    4.8072 H       1  UNL1        0.0000
     62 H          -3.3908   -2.2368    5.0174 H       1  UNL1        0.0000
     63 H          -2.4681   -3.8235    2.4967 H       1  UNL1        0.0000
     64 H          -1.1978   -4.8095    3.2831 H       1  UNL1        0.0000
     65 H          -2.7740   -4.5462    4.1141 H       1  UNL1        0.0000
     66 H           4.1933   -0.5456    1.5885 H       1  UNL1        0.0000
     67 H           5.4903    0.5721   -0.2217 H       1  UNL1        0.0000
     68 EU         -0.5587   -0.1745   -0.8851 Eu      1  UNL1        0.0000
@<TRIPOS>BOND
     1     1     2    2
     2     2     3   am
     3     3     4    1
     4     3     5    1
     5     5     6    1
     6     6     7    1
     7     2     8    1
     8     8     9   ar
     9     9    10   ar
    10     8    11   ar
    11    11    12   ar
    12    12    13   ar
    13    10    13   ar
    14    13    14   ar
    15    14    15   ar
    16    15    16   ar
    17    16    17   ar
    18    12    17   ar
    19    17    18   ar
    20    18    19   ar
    21    19    20    1
    22    20    21   ar
    23    21    22   ar
    24    22    23    1
    25    23    24    1
    26    23    25    1
    27    23    26    1
    28    26    27    1
    29    27    28    1
    30    28    29    1
    31    28    30    1
    32    22    31   ar
    33    28    31    1
    34    31    32   ar
    35    32    33   ar
    36    20    33   ar
    37    19    34   ar
    38    34    35   ar
    39    16    35   ar
    40     4    36    1
    41     4    37    1
    42     4    38    1
    43     5    39    1
    44     5    40    1
    45     6    41    1
    46     6    42    1
    47     7    43    1
    48     7    44    1
    49     7    45    1
    50     9    46    1
    51    10    47    1
    52    14    48    1
    53    15    49    1
    54    24    50    1
    55    24    51    1
    56    24    52    1
    57    25    53    1
    58    25    54    1
    59    25    55    1
    60    26    56    1
    61    26    57    1
    62    27    58    1
    63    27    59    1
    64    29    60    1
    65    29    61    1
    66    29    62    1
    67    30    63    1
    68    30    64    1
    69    30    65    1
    70    34    66    1
    71    35    67    1
    72    68     1    1
    73    68    33    1
    74    68    18    1
    75    68    11    1
@<TRIPOS>MOLECULE
*****
 68 75 0 0 0
SMALL
GASTEIGER

@<TRIPOS>ATOM
      1 O          -2.1802    0.2633   -2.3790 O.2     1  UNL1        0.0000
      2 C          -1.9556    0.8090   -3.4701 C.2     1  UNL1        0.0000
      3 N          -3.0366    0.9914   -4.3174 N.am    1  UNL1        0.0000
      4 C          -4.3636    0.6283   -3.8200 C.3     1  UNL1        0.0000
      5 C          -2.9478    1.4971   -5.6829 C.3     1  UNL1        0.0000
      6 C          -2.3000    0.4432   -6.6018 C.3     1  UNL1        0.0000
      7 C          -2.2050    0.9416   -8.0399 C.3     1  UNL1        0.0000
      8 C          -0.5006    1.1983   -3.7291 C.ar    1  UNL1        0.0000
      9 C           0.0955    1.8616   -4.8387 C.ar    1  UNL1        0.0000
     10 C           1.4857    2.1178   -4.8488 C.ar    1  UNL1        0.0000
     11 N           0.3303    0.8631   -2.7206 N.ar    1  UNL1        0.0000
     12 C           1.6611    1.0929   -2.6977 C.ar    1  UNL1        0.0000
     13 C           2.2886    1.7281   -3.7654 C.ar    1  UNL1        0.0000
     14 C           3.6809    1.9483   -3.7022 C.ar    1  UNL1        0.0000
     15 C           4.4176    1.5270   -2.5698 C.ar    1  UNL1        0.0000
     16 C           3.7631    0.8863   -1.4979 C.ar    1  UNL1        0.0000
     17 C           2.3833    0.6829   -1.5865 C.ar    1  UNL1        0.0000
     18 N           1.7162    0.0780   -0.5866 N.ar    1  UNL1        0.0000
     19 C           2.2991   -0.3697    0.5418 C.ar    1  UNL1        0.0000
     20 C           1.3956   -1.0120    1.5158 C.ar    1  UNL1        0.0000
     21 N           1.8417   -1.5500    2.6758 N.ar    1  UNL1        0.0000
     22 C           0.9849   -2.1655    3.5385 C.ar    1  UNL1        0.0000
     23 C           1.5528   -2.8227    4.7914 C.3     1  UNL1        0.0000
     24 C           2.0103   -1.7122    5.7616 C.3     1  UNL1        0.0000
     25 C           2.7792   -3.6870    4.4229 C.3     1  UNL1        0.0000
     26 C           0.5084   -3.7664    5.4547 C.3     1  UNL1        0.0000
     27 C          -0.8604   -3.1037    5.5550 C.3     1  UNL1        0.0000
     28 C          -1.4495   -2.7930    4.1494 C.3     1  UNL1        0.0000
     29 C          -2.6161   -1.8012    4.3493 C.3     1  UNL1        0.0000
     30 C          -1.9998   -4.0698    3.4766 C.3     1  UNL1        0.0000
     31 C          -0.3994   -2.1853    3.2263 C.ar    1  UNL1        0.0000
     32 N          -0.8001   -1.6486    2.0402 N.ar    1  UNL1        0.0000
     33 N           0.0707   -1.0855    1.2075 N.ar    1  UNL1        0.0000
     34 C           3.6879   -0.1996    0.6961 C.ar    1  UNL1        0.0000
     35 C           4.4216    0.4354   -0.3337 C.ar    1  UNL1        0.0000
     36 H          -4.6086    1.2368   -2.9229 H       1  UNL1        0.0000
     37 H          -5.1678    0.7948   -4.5667 H       1  UNL1        0.0000
     38 H          -4.3850   -0.4491   -3.5488 H       1  UNL1        0.0000
     39 H          -3.9604    1.6791   -6.1044 H       1  UNL1        0.0000
     40 H          -2.4742    2.4956   -5.6923 H       1  UNL1        0.0000
     41 H          -1.2880    0.1598   -6.2555 H       1  UNL1        0.0000
     42 H          -2.9215   -0.4788   -6.5818 H       1  UNL1        0.0000
     43 H          -3.2156    1.1806   -8.4340 H       1  UNL1        0.0000
     44 H          -1.7536    0.1516   -8.6767 H       1  UNL1        0.0000
     45 H          -1.5669    1.8490   -8.0904 H       1  UNL1        0.0000
     46 H          -0.4380    2.1953   -5.7016 H       1  UNL1        0.0000
     47 H           1.9286    2.6195   -5.7008 H       1  UNL1        0.0000
     48 H           4.1943    2.4406   -4.5189 H       1  UNL1        0.0000
     49 H           5.4858    1.7009   -2.5333 H       1  UNL1        0.0000
     50 H           2.7967   -1.0823    5.2922 H       1  UNL1        0.0000
     51 H           2.4317   -2.1547    6.6899 H       1  UNL1        0.0000
     52 H           1.1731   -1.0415    6.0423 H       1  UNL1        0.0000
     53 H           2.4964   -4.4795    3.6961 H       1  UNL1        0.0000
     54 H           3.2021   -4.1749    5.3278 H       1  UNL1        0.0000
     55 H           3.5807   -3.0696    3.9625 H       1  UNL1        0.0000
     56 H           0.3890   -4.6935    4.8558 H       1  UNL1        0.0000
     57 H           0.8685   -4.0786    6.4596 H       1  UNL1        0.0000
     58 H          -0.7360   -2.1690    6.1397 H       1  UNL1        0.0000
     59 H          -1.5684   -3.7436    6.1262 H       1  UNL1        0.0000
     60 H          -3.1004   -1.5510    3.3808 H       1  UNL1        0.0000
     61 H          -2.2517   -0.8551    4.8056 H       1  UNL1        0.0000
     62 H          -3.3909   -2.2369    5.0169 H       1  UNL1        0.0000
     63 H          -2.4675   -3.8257    2.4978 H       1  UNL1        0.0000
     64 H          -1.1970   -4.8106    3.2852 H       1  UNL1        0.0000
     65 H          -2.7733   -4.5470    4.1158 H       1  UNL1        0.0000
     66 H           4.1932   -0.5467    1.5882 H       1  UNL1        0.0000
     67 H           5.4901    0.5714   -0.2218 H       1  UNL1        0.0000
     68 EU         -0.5586   -0.1759   -0.8857 Eu      1  UNL1        0.0000
@<TRIPOS>BOND
     1     1     2    2
     2     2     3   am
     3     3     4    1
     4     3     5    1
     5     5     6    1
     6     6     7    1
     7     2     8    1
     8     8     9   ar
     9     9    10   ar
    10     8    11   ar
    11    11    12   ar
    12    12    13   ar
    13    10    13   ar
    14    13    14   ar
    15    14    15   ar
    16    15    16   ar
    17    16    17   ar
    18    12    17   ar
    19    17    18   ar
    20    18    19   ar
    21    19    20    1
    22    20    21   ar
    23    21    22   ar
    24    22    23    1
    25    23    24    1
    26    23    25    1
    27    23    26    1
    28    26    27    1
    29    27    28    1
    30    28    29    1
    31    28    30    1
    32    22    31   ar
    33    28    31    1
    34    31    32   ar
    35    32    33   ar
    36    20    33   ar
    37    19    34   ar
    38    34    35   ar
    39    16    35   ar
    40     4    36    1
    41     4    37    1
    42     4    38    1
    43     5    39    1
    44     5    40    1
    45     6    41    1
    46     6    42    1
    47     7    43    1
    48     7    44    1
    49     7    45    1
    50     9    46    1
    51    10    47    1
    52    14    48    1
    53    15    49    1
    54    24    50    1
    55    24    51    1
    56    24    52    1
    57    25    53    1
    58    25    54    1
    59    25    55    1
    60    26    56    1
    61    26    57    1
    62    27    58    1
    63    27    59    1
    64    29    60    1
    65    29    61    1
    66    29    62    1
    67    30    63    1
    68    30    64    1
    69    30    65    1
    70    34    66    1
    71    35    67    1
    72    68     1    1
    73    68    33    1
    74    68    18    1
    75    68    11    1
@<TRIPOS>MOLECULE
*****
 68 75 0 0 0
SMALL
GASTEIGER

@<TRIPOS>ATOM
      1 O          -2.1802    0.2588   -2.3810 O.2     1  UNL1        0.0000
      2 C          -1.9556    0.8056   -3.4715 C.2     1  UNL1        0.0000
      3 N          -3.0366    0.9895   -4.3190 N.am    1  UNL1        0.0000
      4 C          -4.3634    0.6239   -3.8224 C.3     1  UNL1        0.0000
      5 C          -2.9481    1.4992   -5.6827 C.3     1  UNL1        0.0000
      6 C          -2.3007    0.4485   -6.6056 C.3     1  UNL1        0.0000
      7 C          -2.2053    0.9531   -8.0416 C.3     1  UNL1        0.0000
      8 C          -0.5007    1.1957   -3.7301 C.ar    1  UNL1        0.0000
      9 C           0.0953    1.8602   -4.8388 C.ar    1  UNL1        0.0000
     10 C           1.4855    2.1170   -4.8486 C.ar    1  UNL1        0.0000
     11 N           0.3299    0.8599   -2.7217 N.ar    1  UNL1        0.0000
     12 C           1.6608    1.0897   -2.6981 C.ar    1  UNL1        0.0000
     13 C           2.2882    1.7265   -3.7652 C.ar    1  UNL1        0.0000
     14 C           3.6804    1.9471   -3.7019 C.ar    1  UNL1        0.0000
     15 C           4.4172    1.5250   -2.5698 C.ar    1  UNL1        0.0000
     16 C           3.7628    0.8832   -1.4984 C.ar    1  UNL1        0.0000
     17 C           2.3828    0.6792   -1.5874 C.ar    1  UNL1        0.0000
     18 N           1.7161    0.0738   -0.5877 N.ar    1  UNL1        0.0000
     19 C           2.2989   -0.3743    0.5402 C.ar    1  UNL1        0.0000
     20 C           1.3956   -1.0170    1.5143 C.ar    1  UNL1        0.0000
     21 N           1.8420   -1.5532    2.6749 N.ar    1  UNL1        0.0000
     22 C           0.9853   -2.1678    3.5383 C.ar    1  UNL1        0.0000
     23 C           1.5532   -2.8214    4.7931 C.3     1  UNL1        0.0000
     24 C           2.0115   -1.7077    5.7593 C.3     1  UNL1        0.0000
     25 C           2.7790   -3.6874    4.4270 C.3     1  UNL1        0.0000
     26 C           0.5087   -3.7622    5.4604 C.3     1  UNL1        0.0000
     27 C          -0.8602   -3.0992    5.5574 C.3     1  UNL1        0.0000
     28 C          -1.4489   -2.7947    4.1504 C.3     1  UNL1        0.0000
     29 C          -2.6169   -1.8035    4.3460 C.3     1  UNL1        0.0000
     30 C          -1.9975   -4.0745    3.4820 C.3     1  UNL1        0.0000
     31 C          -0.3990   -2.1889    3.2259 C.ar    1  UNL1        0.0000
     32 N          -0.7997   -1.6541    2.0389 N.ar    1  UNL1        0.0000
     33 N           0.0709   -1.0911    1.2059 N.ar    1  UNL1        0.0000
     34 C           3.6877   -0.2039    0.6948 C.ar    1  UNL1        0.0000
     35 C           4.4212    0.4319   -0.3345 C.ar    1  UNL1        0.0000
     36 H          -4.6090    1.2298   -2.9238 H       1  UNL1        0.0000
     37 H          -5.1677    0.7918   -4.5689 H       1  UNL1        0.0000
     38 H          -4.3840   -0.4542   -3.5542 H       1  UNL1        0.0000
     39 H          -3.9608    1.6827   -6.1033 H       1  UNL1        0.0000
     40 H          -2.4745    2.4977   -5.6888 H       1  UNL1        0.0000
     41 H          -1.2889    0.1632   -6.2602 H       1  UNL1        0.0000
     42 H          -2.9227   -0.4731   -6.5894 H       1  UNL1        0.0000
     43 H          -3.2156    1.1944   -8.4349 H       1  UNL1        0.0000
     44 H          -1.7541    0.1656   -8.6818 H       1  UNL1        0.0000
     45 H          -1.5667    1.8604   -8.0881 H       1  UNL1        0.0000
     46 H          -0.4382    2.1950   -5.7011 H       1  UNL1        0.0000
     47 H           1.9281    2.6199   -5.6997 H       1  UNL1        0.0000
     48 H           4.1937    2.4405   -4.5179 H       1  UNL1        0.0000
     49 H           5.4854    1.6995   -2.5331 H       1  UNL1        0.0000
     50 H           2.7980   -1.0796    5.2874 H       1  UNL1        0.0000
     51 H           2.4333   -2.1471    6.6889 H       1  UNL1        0.0000
     52 H           1.1746   -1.0358    6.0381 H       1  UNL1        0.0000
     53 H           2.4955   -4.4824    3.7033 H       1  UNL1        0.0000
     54 H           3.2022   -4.1723    5.3335 H       1  UNL1        0.0000
     55 H           3.5805   -3.0720    3.9640 H       1  UNL1        0.0000
     56 H           0.3894   -4.6920    4.8655 H       1  UNL1        0.0000
     57 H           0.8687   -4.0701    6.4665 H       1  UNL1        0.0000
     58 H          -0.7360   -2.1619    6.1381 H       1  UNL1        0.0000
     59 H          -1.5682   -3.7368    6.1312 H       1  UNL1        0.0000
     60 H          -3.1011   -1.5577    3.3764 H       1  UNL1        0.0000
     61 H          -2.2539   -0.8552    4.7988 H       1  UNL1        0.0000
     62 H          -3.3915   -2.2377    5.0150 H       1  UNL1        0.0000
     63 H          -2.4650   -3.8346    2.5021 H       1  UNL1        0.0000
     64 H          -1.1938   -4.8151    3.2937 H       1  UNL1        0.0000
     65 H          -2.7707   -4.5503    4.1227 H       1  UNL1        0.0000
     66 H           4.1930   -0.5513    1.5867 H       1  UNL1        0.0000
     67 H           5.4898    0.5680   -0.2225 H       1  UNL1        0.0000
     68 EU         -0.5589   -0.1809   -0.8874 Eu      1  UNL1        0.0000
@<TRIPOS>BOND
     1     1     2    2
     2     2     3   am
     3     3     4    1
     4     3     5    1
     5     5     6    1
     6     6     7    1
     7     2     8    1
     8     8     9   ar
     9     9    10   ar
    10     8    11   ar
    11    11    12   ar
    12    12    13   ar
    13    10    13   ar
    14    13    14   ar
    15    14    15   ar
    16    15    16   ar
    17    16    17   ar
    18    12    17   ar
    19    17    18   ar
    20    18    19   ar
    21    19    20    1
    22    20    21   ar
    23    21    22   ar
    24    22    23    1
    25    23    24    1
    26    23    25    1
    27    23    26    1
    28    26    27    1
    29    27    28    1
    30    28    29    1
    31    28    30    1
    32    22    31   ar
    33    28    31    1
    34    31    32   ar
    35    32    33   ar
    36    20    33   ar
    37    19    34   ar
    38    34    35   ar
    39    16    35   ar
    40     4    36    1
    41     4    37    1
    42     4    38    1
    43     5    39    1
    44     5    40    1
    45     6    41    1
    46     6    42    1
    47     7    43    1
    48     7    44    1
    49     7    45    1
    50     9    46    1
    51    10    47    1
    52    14    48    1
    53    15    49    1
    54    24    50    1
    55    24    51    1
    56    24    52    1
    57    25    53    1
    58    25    54    1
    59    25    55    1
    60    26    56    1
    61    26    57    1
    62    27    58    1
    63    27    59    1
    64    29    60    1
    65    29    61    1
    66    29    62    1
    67    30    63    1
    68    30    64    1
    69    30    65    1
    70    34    66    1
    71    35    67    1
    72    68     1    1
    73    68    33    1
    74    68    18    1
    75    68    11    1
@<TRIPOS>MOLECULE
*****
 68 75 0 0 0
SMALL
GASTEIGER

@<TRIPOS>ATOM
      1 O          -2.1802    0.2583   -2.3812 O.2     1  UNL1        0.0000
      2 C          -1.9555    0.8052   -3.4717 C.2     1  UNL1        0.0000
      3 N          -3.0366    0.9893   -4.3190 N.am    1  UNL1        0.0000
      4 C          -4.3633    0.6235   -3.8227 C.3     1  UNL1        0.0000
      5 C          -2.9481    1.4994   -5.6827 C.3     1  UNL1        0.0000
      6 C          -2.3008    0.4492   -6.6060 C.3     1  UNL1        0.0000
      7 C          -2.2053    0.9544   -8.0418 C.3     1  UNL1        0.0000
      8 C          -0.5009    1.1954   -3.7301 C.ar    1  UNL1        0.0000
      9 C           0.0953    1.8602   -4.8388 C.ar    1  UNL1        0.0000
     10 C           1.4854    2.1169   -4.8484 C.ar    1  UNL1        0.0000
     11 N           0.3301    0.8594   -2.7217 N.ar    1  UNL1        0.0000
     12 C           1.6607    1.0897   -2.6984 C.ar    1  UNL1        0.0000
     13 C           2.2882    1.7264   -3.7654 C.ar    1  UNL1        0.0000
     14 C           3.6804    1.9470   -3.7018 C.ar    1  UNL1        0.0000
     15 C           4.4172    1.5249   -2.5698 C.ar    1  UNL1        0.0000
     16 C           3.7627    0.8830   -1.4985 C.ar    1  UNL1        0.0000
     17 C           2.3831    0.6790   -1.5875 C.ar    1  UNL1        0.0000
     18 N           1.7159    0.0734   -0.5881 N.ar    1  UNL1        0.0000
     19 C           2.2991   -0.3749    0.5400 C.ar    1  UNL1        0.0000
     20 C           1.3956   -1.0175    1.5138 C.ar    1  UNL1        0.0000
     21 N           1.8420   -1.5536    2.6748 N.ar    1  UNL1        0.0000
     22 C           0.9853   -2.1681    3.5383 C.ar    1  UNL1        0.0000
     23 C           1.5532   -2.8212    4.7932 C.3     1  UNL1        0.0000
     24 C           2.0117   -1.7071    5.7591 C.3     1  UNL1        0.0000
     25 C           2.7790   -3.6874    4.4275 C.3     1  UNL1        0.0000
     26 C           0.5088   -3.7617    5.4610 C.3     1  UNL1        0.0000
     27 C          -0.8601   -3.0987    5.5576 C.3     1  UNL1        0.0000
     28 C          -1.4489   -2.7950    4.1505 C.3     1  UNL1        0.0000
     29 C          -2.6170   -1.8038    4.3456 C.3     1  UNL1        0.0000
     30 C          -1.9972   -4.0750    3.4826 C.3     1  UNL1        0.0000
     31 C          -0.3991   -2.1892    3.2257 C.ar    1  UNL1        0.0000
     32 N          -0.7998   -1.6547    2.0386 N.ar    1  UNL1        0.0000
     33 N           0.0709   -1.0917    1.2055 N.ar    1  UNL1        0.0000
     34 C           3.6876   -0.2044    0.6945 C.ar    1  UNL1        0.0000
     35 C           4.4212    0.4315   -0.3345 C.ar    1  UNL1        0.0000
     36 H          -4.6091    1.2290   -2.9239 H       1  UNL1        0.0000
     37 H          -5.1676    0.7915   -4.5691 H       1  UNL1        0.0000
     38 H          -4.3839   -0.4548   -3.5548 H       1  UNL1        0.0000
     39 H          -3.9609    1.6831   -6.1032 H       1  UNL1        0.0000
     40 H          -2.4745    2.4980   -5.6884 H       1  UNL1        0.0000
     41 H          -1.2891    0.1636   -6.2608 H       1  UNL1        0.0000
     42 H          -2.9228   -0.4725   -6.5903 H       1  UNL1        0.0000
     43 H          -3.2156    1.1959   -8.4350 H       1  UNL1        0.0000
     44 H          -1.7541    0.1672   -8.6823 H       1  UNL1        0.0000
     45 H          -1.5667    1.8617   -8.0879 H       1  UNL1        0.0000
     46 H          -0.4382    2.1950   -5.7012 H       1  UNL1        0.0000
     47 H           1.9281    2.6199   -5.6996 H       1  UNL1        0.0000
     48 H           4.1936    2.4404   -4.5178 H       1  UNL1        0.0000
     49 H           5.4853    1.6993   -2.5330 H       1  UNL1        0.0000
     50 H           2.7981   -1.0793    5.2869 H       1  UNL1        0.0000
     51 H           2.4334   -2.1462    6.6888 H       1  UNL1        0.0000
     52 H           1.1748   -1.0352    6.0376 H       1  UNL1        0.0000
     53 H           2.4954   -4.4827    3.7041 H       1  UNL1        0.0000
     54 H           3.2022   -4.1720    5.3341 H       1  UNL1        0.0000
     55 H           3.5805   -3.0723    3.9641 H       1  UNL1        0.0000
     56 H           0.3894   -4.6918    4.8665 H       1  UNL1        0.0000
     57 H           0.8687   -4.0691    6.4673 H       1  UNL1        0.0000
     58 H          -0.7360   -2.1611    6.1379 H       1  UNL1        0.0000
     59 H          -1.5682   -3.7360    6.1317 H       1  UNL1        0.0000
     60 H          -3.1012   -1.5585    3.3759 H       1  UNL1        0.0000
     61 H          -2.2541   -0.8552    4.7981 H       1  UNL1        0.0000
     62 H          -3.3916   -2.2378    5.0148 H       1  UNL1        0.0000
     63 H          -2.4647   -3.8356    2.5026 H       1  UNL1        0.0000
     64 H          -1.1935   -4.8157    3.2947 H       1  UNL1        0.0000
     65 H          -2.7704   -4.5506    4.1235 H       1  UNL1        0.0000
     66 H           4.1930   -0.5517    1.5867 H       1  UNL1        0.0000
     67 H           5.4897    0.5677   -0.2225 H       1  UNL1        0.0000
     68 EU         -0.5588   -0.1815   -0.8877 Eu      1  UNL1        0.0000
@<TRIPOS>BOND
     1     1     2    2
     2     2     3   am
     3     3     4    1
     4     3     5    1
     5     5     6    1
     6     6     7    1
     7     2     8    1
     8     8     9   ar
     9     9    10   ar
    10     8    11   ar
    11    11    12   ar
    12    12    13   ar
    13    10    13   ar
    14    13    14   ar
    15    14    15   ar
    16    15    16   ar
    17    16    17   ar
    18    12    17   ar
    19    17    18   ar
    20    18    19   ar
    21    19    20    1
    22    20    21   ar
    23    21    22   ar
    24    22    23    1
    25    23    24    1
    26    23    25    1
    27    23    26    1
    28    26    27    1
    29    27    28    1
    30    28    29    1
    31    28    30    1
    32    22    31   ar
    33    28    31    1
    34    31    32   ar
    35    32    33   ar
    36    20    33   ar
    37    19    34   ar
    38    34    35   ar
    39    16    35   ar
    40     4    36    1
    41     4    37    1
    42     4    38    1
    43     5    39    1
    44     5    40    1
    45     6    41    1
    46     6    42    1
    47     7    43    1
    48     7    44    1
    49     7    45    1
    50     9    46    1
    51    10    47    1
    52    14    48    1
    53    15    49    1
    54    24    50    1
    55    24    51    1
    56    24    52    1
    57    25    53    1
    58    25    54    1
    59    25    55    1
    60    26    56    1
    61    26    57    1
    62    27    58    1
    63    27    59    1
    64    29    60    1
    65    29    61    1
    66    29    62    1
    67    30    63    1
    68    30    64    1
    69    30    65    1
    70    34    66    1
    71    35    67    1
    72    68     1    1
    73    68    33    1
    74    68    18    1
    75    68    11    1
@<TRIPOS>MOLECULE
*****
 68 75 0 0 0
SMALL
GASTEIGER

@<TRIPOS>ATOM
      1 O          -2.1802    0.2571   -2.3819 O.2     1  UNL1        0.0000
      2 C          -1.9556    0.8044   -3.4721 C.2     1  UNL1        0.0000
      3 N          -3.0366    0.9887   -4.3195 N.am    1  UNL1        0.0000
      4 C          -4.3633    0.6224   -3.8233 C.3     1  UNL1        0.0000
      5 C          -2.9482    1.5000   -5.6826 C.3     1  UNL1        0.0000
      6 C          -2.3010    0.4504   -6.6069 C.3     1  UNL1        0.0000
      7 C          -2.2054    0.9571   -8.0421 C.3     1  UNL1        0.0000
      8 C          -0.5008    1.1946   -3.7302 C.ar    1  UNL1        0.0000
      9 C           0.0952    1.8597   -4.8388 C.ar    1  UNL1        0.0000
     10 C           1.4854    2.1166   -4.8484 C.ar    1  UNL1        0.0000
     11 N           0.3298    0.8583   -2.7221 N.ar    1  UNL1        0.0000
     12 C           1.6606    1.0889   -2.6986 C.ar    1  UNL1        0.0000
     13 C           2.2881    1.7257   -3.7652 C.ar    1  UNL1        0.0000
     14 C           3.6802    1.9466   -3.7016 C.ar    1  UNL1        0.0000
     15 C           4.4169    1.5242   -2.5696 C.ar    1  UNL1        0.0000
     16 C           3.7626    0.8822   -1.4986 C.ar    1  UNL1        0.0000
     17 C           2.3827    0.6779   -1.5878 C.ar    1  UNL1        0.0000
     18 N           1.7159    0.0720   -0.5884 N.ar    1  UNL1        0.0000
     19 C           2.2987   -0.3761    0.5395 C.ar    1  UNL1        0.0000
     20 C           1.3955   -1.0187    1.5135 C.ar    1  UNL1        0.0000
     21 N           1.8418   -1.5545    2.6744 N.ar    1  UNL1        0.0000
     22 C           0.9854   -2.1686    3.5381 C.ar    1  UNL1        0.0000
     23 C           1.5532   -2.8209    4.7937 C.3     1  UNL1        0.0000
     24 C           2.0119   -1.7061    5.7585 C.3     1  UNL1        0.0000
     25 C           2.7790   -3.6875    4.4284 C.3     1  UNL1        0.0000
     26 C           0.5088   -3.7607    5.4622 C.3     1  UNL1        0.0000
     27 C          -0.8600   -3.0977    5.5583 C.3     1  UNL1        0.0000
     28 C          -1.4488   -2.7953    4.1506 C.3     1  UNL1        0.0000
     29 C          -2.6171   -1.8045    4.3447 C.3     1  UNL1        0.0000
     30 C          -1.9967   -4.0763    3.4840 C.3     1  UNL1        0.0000
     31 C          -0.3989   -2.1902    3.2257 C.ar    1  UNL1        0.0000
     32 N          -0.7998   -1.6562    2.0382 N.ar    1  UNL1        0.0000
     33 N           0.0708   -1.0933    1.2048 N.ar    1  UNL1        0.0000
     34 C           3.6874   -0.2054    0.6943 C.ar    1  UNL1        0.0000
     35 C           4.4210    0.4306   -0.3347 C.ar    1  UNL1        0.0000
     36 H          -4.6091    1.2273   -2.9241 H       1  UNL1        0.0000
     37 H          -5.1676    0.7907   -4.5696 H       1  UNL1        0.0000
     38 H          -4.3837   -0.4561   -3.5561 H       1  UNL1        0.0000
     39 H          -3.9609    1.6840   -6.1029 H       1  UNL1        0.0000
     40 H          -2.4745    2.4984   -5.6876 H       1  UNL1        0.0000
     41 H          -1.2893    0.1643   -6.2619 H       1  UNL1        0.0000
     42 H          -2.9231   -0.4712   -6.5921 H       1  UNL1        0.0000
     43 H          -3.2156    1.1992   -8.4352 H       1  UNL1        0.0000
     44 H          -1.7543    0.1706   -8.6835 H       1  UNL1        0.0000
     45 H          -1.5666    1.8644   -8.0874 H       1  UNL1        0.0000
     46 H          -0.4382    2.1949   -5.7012 H       1  UNL1        0.0000
     47 H           1.9281    2.6198   -5.6993 H       1  UNL1        0.0000
     48 H           4.1935    2.4403   -4.5174 H       1  UNL1        0.0000
     49 H           5.4851    1.6989   -2.5327 H       1  UNL1        0.0000
     50 H           2.7984   -1.0787    5.2858 H       1  UNL1        0.0000
     51 H           2.4337   -2.1444    6.6885 H       1  UNL1        0.0000
     52 H           1.1751   -1.0338    6.0366 H       1  UNL1        0.0000
     53 H           2.4952   -4.4833    3.7057 H       1  UNL1        0.0000
     54 H           3.2022   -4.1713    5.3354 H       1  UNL1        0.0000
     55 H           3.5805   -3.0728    3.9645 H       1  UNL1        0.0000
     56 H           0.3895   -4.6914    4.8687 H       1  UNL1        0.0000
     57 H           0.8688   -4.0671    6.4688 H       1  UNL1        0.0000
     58 H          -0.7360   -2.1594    6.1374 H       1  UNL1        0.0000
     59 H          -1.5681   -3.7345    6.1329 H       1  UNL1        0.0000
     60 H          -3.1014   -1.5600    3.3749 H       1  UNL1        0.0000
     61 H          -2.2546   -0.8553    4.7965 H       1  UNL1        0.0000
     62 H          -3.3917   -2.2379    5.0144 H       1  UNL1        0.0000
     63 H          -2.4642   -3.8377    2.5036 H       1  UNL1        0.0000
     64 H          -1.1927   -4.8167    3.2966 H       1  UNL1        0.0000
     65 H          -2.7698   -4.5514    4.1251 H       1  UNL1        0.0000
     66 H           4.1928   -0.5528    1.5864 H       1  UNL1        0.0000
     67 H           5.4894    0.5670   -0.2225 H       1  UNL1        0.0000
     68 EU         -0.5591   -0.1828   -0.8881 Eu      1  UNL1        0.0000
@<TRIPOS>BOND
     1     1     2    2
     2     2     3   am
     3     3     4    1
     4     3     5    1
     5     5     6    1
     6     6     7    1
     7     2     8    1
     8     8     9   ar
     9     9    10   ar
    10     8    11   ar
    11    11    12   ar
    12    12    13   ar
    13    10    13   ar
    14    13    14   ar
    15    14    15   ar
    16    15    16   ar
    17    16    17   ar
    18    12    17   ar
    19    17    18   ar
    20    18    19   ar
    21    19    20    1
    22    20    21   ar
    23    21    22   ar
    24    22    23    1
    25    23    24    1
    26    23    25    1
    27    23    26    1
    28    26    27    1
    29    27    28    1
    30    28    29    1
    31    28    30    1
    32    22    31   ar
    33    28    31    1
    34    31    32   ar
    35    32    33   ar
    36    20    33   ar
    37    19    34   ar
    38    34    35   ar
    39    16    35   ar
    40     4    36    1
    41     4    37    1
    42     4    38    1
    43     5    39    1
    44     5    40    1
    45     6    41    1
    46     6    42    1
    47     7    43    1
    48     7    44    1
    49     7    45    1
    50     9    46    1
    51    10    47    1
    52    14    48    1
    53    15    49    1
    54    24    50    1
    55    24    51    1
    56    24    52    1
    57    25    53    1
    58    25    54    1
    59    25    55    1
    60    26    56    1
    61    26    57    1
    62    27    58    1
    63    27    59    1
    64    29    60    1
    65    29    61    1
    66    29    62    1
    67    30    63    1
    68    30    64    1
    69    30    65    1
    70    34    66    1
    71    35    67    1
    72    68     1    1
    73    68    33    1
    74    68    18    1
    75    68    11    1
@<TRIPOS>MOLECULE
*****
 68 75 0 0 0
SMALL
GASTEIGER

@<TRIPOS>ATOM
      1 O          -2.1802    0.2555   -2.3826 O.2     1  UNL1        0.0000
      2 C          -1.9556    0.8032   -3.4727 C.2     1  UNL1        0.0000
      3 N          -3.0366    0.9879   -4.3200 N.am    1  UNL1        0.0000
      4 C          -4.3633    0.6210   -3.8241 C.3     1  UNL1        0.0000
      5 C          -2.9483    1.5005   -5.6826 C.3     1  UNL1        0.0000
      6 C          -2.3013    0.4521   -6.6082 C.3     1  UNL1        0.0000
      7 C          -2.2054    0.9605   -8.0427 C.3     1  UNL1        0.0000
      8 C          -0.5009    1.1936   -3.7306 C.ar    1  UNL1        0.0000
      9 C           0.0951    1.8592   -4.8389 C.ar    1  UNL1        0.0000
     10 C           1.4854    2.1162   -4.8483 C.ar    1  UNL1        0.0000
     11 N           0.3299    0.8569   -2.7227 N.ar    1  UNL1        0.0000
     12 C           1.6607    1.0881   -2.6989 C.ar    1  UNL1        0.0000
     13 C           2.2879    1.7251   -3.7653 C.ar    1  UNL1        0.0000
     14 C           3.6801    1.9462   -3.7015 C.ar    1  UNL1        0.0000
     15 C           4.4168    1.5238   -2.5697 C.ar    1  UNL1        0.0000
     16 C           3.7625    0.8813   -1.4989 C.ar    1  UNL1        0.0000
     17 C           2.3827    0.6767   -1.5882 C.ar    1  UNL1        0.0000
     18 N           1.7158    0.0706   -0.5892 N.ar    1  UNL1        0.0000
     19 C           2.2987   -0.3779    0.5389 C.ar    1  UNL1        0.0000
     20 C           1.3954   -1.0206    1.5128 C.ar    1  UNL1        0.0000
     21 N           1.8419   -1.5557    2.6737 N.ar    1  UNL1        0.0000
     22 C           0.9853   -2.1694    3.5381 C.ar    1  UNL1        0.0000
     23 C           1.5533   -2.8205    4.7941 C.3     1  UNL1        0.0000
     24 C           2.0121   -1.7047    5.7577 C.3     1  UNL1        0.0000
     25 C           2.7790   -3.6876    4.4296 C.3     1  UNL1        0.0000
     26 C           0.5089   -3.7595    5.4638 C.3     1  UNL1        0.0000
     27 C          -0.8600   -3.0964    5.5589 C.3     1  UNL1        0.0000
     28 C          -1.4487   -2.7958    4.1509 C.3     1  UNL1        0.0000
     29 C          -2.6175   -1.8051    4.3439 C.3     1  UNL1        0.0000
     30 C          -1.9961   -4.0777    3.4855 C.3     1  UNL1        0.0000
     31 C          -0.3989   -2.1914    3.2254 C.ar    1  UNL1        0.0000
     32 N          -0.7995   -1.6579    2.0377 N.ar    1  UNL1        0.0000
     33 N           0.0708   -1.0954    1.2041 N.ar    1  UNL1        0.0000
     34 C           3.6874   -0.2069    0.6937 C.ar    1  UNL1        0.0000
     35 C           4.4210    0.4296   -0.3351 C.ar    1  UNL1        0.0000
     36 H          -4.6092    1.2252   -2.9244 H       1  UNL1        0.0000
     37 H          -5.1676    0.7898   -4.5703 H       1  UNL1        0.0000
     38 H          -4.3835   -0.4576   -3.5578 H       1  UNL1        0.0000
     39 H          -3.9610    1.6851   -6.1026 H       1  UNL1        0.0000
     40 H          -2.4746    2.4990   -5.6865 H       1  UNL1        0.0000
     41 H          -1.2896    0.1653   -6.2635 H       1  UNL1        0.0000
     42 H          -2.9235   -0.4695   -6.5945 H       1  UNL1        0.0000
     43 H          -3.2156    1.2033   -8.4355 H       1  UNL1        0.0000
     44 H          -1.7545    0.1748   -8.6851 H       1  UNL1        0.0000
     45 H          -1.5666    1.8678   -8.0867 H       1  UNL1        0.0000
     46 H          -0.4382    2.1945   -5.7011 H       1  UNL1        0.0000
     47 H           1.9279    2.6198   -5.6991 H       1  UNL1        0.0000
     48 H           4.1932    2.4403   -4.5172 H       1  UNL1        0.0000
     49 H           5.4849    1.6986   -2.5326 H       1  UNL1        0.0000
     50 H           2.7986   -1.0779    5.2843 H       1  UNL1        0.0000
     51 H           2.4341   -2.1421    6.6882 H       1  UNL1        0.0000
     52 H           1.1754   -1.0321    6.0353 H       1  UNL1        0.0000
     53 H           2.4951   -4.4841    3.7078 H       1  UNL1        0.0000
     54 H           3.2022   -4.1704    5.3371 H       1  UNL1        0.0000
     55 H           3.5804   -3.0734    3.9649 H       1  UNL1        0.0000
     56 H           0.3897   -4.6909    4.8715 H       1  UNL1        0.0000
     57 H           0.8689   -4.0646    6.4709 H       1  UNL1        0.0000
     58 H          -0.7361   -2.1574    6.1369 H       1  UNL1        0.0000
     59 H          -1.5680   -3.7325    6.1343 H       1  UNL1        0.0000
     60 H          -3.1017   -1.5621    3.3736 H       1  UNL1        0.0000
     61 H          -2.2553   -0.8554    4.7945 H       1  UNL1        0.0000
     62 H          -3.3919   -2.2382    5.0138 H       1  UNL1        0.0000
     63 H          -2.4634   -3.8405    2.5049 H       1  UNL1        0.0000
     64 H          -1.1918   -4.8181    3.2991 H       1  UNL1        0.0000
     65 H          -2.7690   -4.5525    4.1272 H       1  UNL1        0.0000
     66 H           4.1926   -0.5542    1.5858 H       1  UNL1        0.0000
     67 H           5.4893    0.5662   -0.2228 H       1  UNL1        0.0000
     68 EU         -0.5591   -0.1847   -0.8889 Eu      1  UNL1        0.0000
@<TRIPOS>BOND
     1     1     2    2
     2     2     3   am
     3     3     4    1
     4     3     5    1
     5     5     6    1
     6     6     7    1
     7     2     8    1
     8     8     9   ar
     9     9    10   ar
    10     8    11   ar
    11    11    12   ar
    12    12    13   ar
    13    10    13   ar
    14    13    14   ar
    15    14    15   ar
    16    15    16   ar
    17    16    17   ar
    18    12    17   ar
    19    17    18   ar
    20    18    19   ar
    21    19    20    1
    22    20    21   ar
    23    21    22   ar
    24    22    23    1
    25    23    24    1
    26    23    25    1
    27    23    26    1
    28    26    27    1
    29    27    28    1
    30    28    29    1
    31    28    30    1
    32    22    31   ar
    33    28    31    1
    34    31    32   ar
    35    32    33   ar
    36    20    33   ar
    37    19    34   ar
    38    34    35   ar
    39    16    35   ar
    40     4    36    1
    41     4    37    1
    42     4    38    1
    43     5    39    1
    44     5    40    1
    45     6    41    1
    46     6    42    1
    47     7    43    1
    48     7    44    1
    49     7    45    1
    50     9    46    1
    51    10    47    1
    52    14    48    1
    53    15    49    1
    54    24    50    1
    55    24    51    1
    56    24    52    1
    57    25    53    1
    58    25    54    1
    59    25    55    1
    60    26    56    1
    61    26    57    1
    62    27    58    1
    63    27    59    1
    64    29    60    1
    65    29    61    1
    66    29    62    1
    67    30    63    1
    68    30    64    1
    69    30    65    1
    70    34    66    1
    71    35    67    1
    72    68     1    1
    73    68    33    1
    74    68    18    1
    75    68    11    1
@<TRIPOS>MOLECULE
*****
 68 75 0 0 0
SMALL
GASTEIGER

@<TRIPOS>ATOM
      1 O          -2.1803    0.2539   -2.3838 O.2     1  UNL1        0.0000
      2 C          -1.9558    0.8020   -3.4735 C.2     1  UNL1        0.0000
      3 N          -3.0367    0.9871   -4.3206 N.am    1  UNL1        0.0000
      4 C          -4.3633    0.6195   -3.8251 C.3     1  UNL1        0.0000
      5 C          -2.9485    1.5013   -5.6826 C.3     1  UNL1        0.0000
      6 C          -2.3016    0.4539   -6.6095 C.3     1  UNL1        0.0000
      7 C          -2.2056    0.9645   -8.0433 C.3     1  UNL1        0.0000
      8 C          -0.5010    1.1930   -3.7309 C.ar    1  UNL1        0.0000
      9 C           0.0949    1.8591   -4.8390 C.ar    1  UNL1        0.0000
     10 C           1.4851    2.1161   -4.8482 C.ar    1  UNL1        0.0000
     11 N           0.3295    0.8562   -2.7229 N.ar    1  UNL1        0.0000
     12 C           1.6603    1.0868   -2.6990 C.ar    1  UNL1        0.0000
     13 C           2.2876    1.7247   -3.7652 C.ar    1  UNL1        0.0000
     14 C           3.6800    1.9459   -3.7016 C.ar    1  UNL1        0.0000
     15 C           4.4165    1.5231   -2.5697 C.ar    1  UNL1        0.0000
     16 C           3.7621    0.8803   -1.4990 C.ar    1  UNL1        0.0000
     17 C           2.3823    0.6756   -1.5885 C.ar    1  UNL1        0.0000
     18 N           1.7157    0.0690   -0.5896 N.ar    1  UNL1        0.0000
     19 C           2.2985   -0.3794    0.5382 C.ar    1  UNL1        0.0000
     20 C           1.3955   -1.0223    1.5121 C.ar    1  UNL1        0.0000
     21 N           1.8419   -1.5569    2.6735 N.ar    1  UNL1        0.0000
     22 C           0.9855   -2.1701    3.5380 C.ar    1  UNL1        0.0000
     23 C           1.5536   -2.8199    4.7947 C.3     1  UNL1        0.0000
     24 C           2.0125   -1.7031    5.7569 C.3     1  UNL1        0.0000
     25 C           2.7790   -3.6876    4.4311 C.3     1  UNL1        0.0000
     26 C           0.5091   -3.7581    5.4657 C.3     1  UNL1        0.0000
     27 C          -0.8598   -3.0949    5.5597 C.3     1  UNL1        0.0000
     28 C          -1.4484   -2.7965    4.1512 C.3     1  UNL1        0.0000
     29 C          -2.6176   -1.8060    4.3427 C.3     1  UNL1        0.0000
     30 C          -1.9952   -4.0793    3.4873 C.3     1  UNL1        0.0000
     31 C          -0.3987   -2.1926    3.2252 C.ar    1  UNL1        0.0000
     32 N          -0.7994   -1.6600    2.0371 N.ar    1  UNL1        0.0000
     33 N           0.0708   -1.0974    1.2036 N.ar    1  UNL1        0.0000
     34 C           3.6873   -0.2084    0.6933 C.ar    1  UNL1        0.0000
     35 C           4.4207    0.4284   -0.3353 C.ar    1  UNL1        0.0000
     36 H          -4.6093    1.2228   -2.9248 H       1  UNL1        0.0000
     37 H          -5.1676    0.7889   -4.5712 H       1  UNL1        0.0000
     38 H          -4.3833   -0.4594   -3.5598 H       1  UNL1        0.0000
     39 H          -3.9613    1.6865   -6.1023 H       1  UNL1        0.0000
     40 H          -2.4747    2.4997   -5.6854 H       1  UNL1        0.0000
     41 H          -1.2900    0.1665   -6.2651 H       1  UNL1        0.0000
     42 H          -2.9241   -0.4675   -6.5972 H       1  UNL1        0.0000
     43 H          -3.2157    1.2081   -8.4358 H       1  UNL1        0.0000
     44 H          -1.7547    0.1796   -8.6869 H       1  UNL1        0.0000
     45 H          -1.5665    1.8717   -8.0859 H       1  UNL1        0.0000
     46 H          -0.4383    2.1944   -5.7012 H       1  UNL1        0.0000
     47 H           1.9278    2.6199   -5.6988 H       1  UNL1        0.0000
     48 H           4.1930    2.4402   -4.5169 H       1  UNL1        0.0000
     49 H           5.4846    1.6982   -2.5325 H       1  UNL1        0.0000
     50 H           2.7990   -1.0769    5.2826 H       1  UNL1        0.0000
     51 H           2.4346   -2.1394    6.6879 H       1  UNL1        0.0000
     52 H           1.1759   -1.0302    6.0338 H       1  UNL1        0.0000
     53 H           2.4949   -4.4850    3.7103 H       1  UNL1        0.0000
     54 H           3.2024   -4.1695    5.3390 H       1  UNL1        0.0000
     55 H           3.5805   -3.0741    3.9655 H       1  UNL1        0.0000
     56 H           0.3900   -4.6904    4.8748 H       1  UNL1        0.0000
     57 H           0.8690   -4.0618    6.4732 H       1  UNL1        0.0000
     58 H          -0.7360   -2.1551    6.1363 H       1  UNL1        0.0000
     59 H          -1.5679   -3.7303    6.1359 H       1  UNL1        0.0000
     60 H          -3.1018   -1.5644    3.3720 H       1  UNL1        0.0000
     61 H          -2.2560   -0.8555    4.7921 H       1  UNL1        0.0000
     62 H          -3.3920   -2.2386    5.0130 H       1  UNL1        0.0000
     63 H          -2.4626   -3.8435    2.5063 H       1  UNL1        0.0000
     64 H          -1.1906   -4.8197    3.3020 H       1  UNL1        0.0000
     65 H          -2.7681   -4.5536    4.1295 H       1  UNL1        0.0000
     66 H           4.1925   -0.5558    1.5853 H       1  UNL1        0.0000
     67 H           5.4890    0.5651   -0.2229 H       1  UNL1        0.0000
     68 EU         -0.5593   -0.1866   -0.8896 Eu      1  UNL1        0.0000
@<TRIPOS>BOND
     1     1     2    2
     2     2     3   am
     3     3     4    1
     4     3     5    1
     5     5     6    1
     6     6     7    1
     7     2     8    1
     8     8     9   ar
     9     9    10   ar
    10     8    11   ar
    11    11    12   ar
    12    12    13   ar
    13    10    13   ar
    14    13    14   ar
    15    14    15   ar
    16    15    16   ar
    17    16    17   ar
    18    12    17   ar
    19    17    18   ar
    20    18    19   ar
    21    19    20    1
    22    20    21   ar
    23    21    22   ar
    24    22    23    1
    25    23    24    1
    26    23    25    1
    27    23    26    1
    28    26    27    1
    29    27    28    1
    30    28    29    1
    31    28    30    1
    32    22    31   ar
    33    28    31    1
    34    31    32   ar
    35    32    33   ar
    36    20    33   ar
    37    19    34   ar
    38    34    35   ar
    39    16    35   ar
    40     4    36    1
    41     4    37    1
    42     4    38    1
    43     5    39    1
    44     5    40    1
    45     6    41    1
    46     6    42    1
    47     7    43    1
    48     7    44    1
    49     7    45    1
    50     9    46    1
    51    10    47    1
    52    14    48    1
    53    15    49    1
    54    24    50    1
    55    24    51    1
    56    24    52    1
    57    25    53    1
    58    25    54    1
    59    25    55    1
    60    26    56    1
    61    26    57    1
    62    27    58    1
    63    27    59    1
    64    29    60    1
    65    29    61    1
    66    29    62    1
    67    30    63    1
    68    30    64    1
    69    30    65    1
    70    34    66    1
    71    35    67    1
    72    68     1    1
    73    68    33    1
    74    68    18    1
    75    68    11    1
@<TRIPOS>MOLECULE
*****
 68 75 0 0 0
SMALL
GASTEIGER

@<TRIPOS>ATOM
      1 O          -2.1801    0.2525   -2.3842 O.2     1  UNL1        0.0000
      2 C          -1.9555    0.8012   -3.4738 C.2     1  UNL1        0.0000
      3 N          -3.0365    0.9865   -4.3210 N.am    1  UNL1        0.0000
      4 C          -4.3632    0.6183   -3.8258 C.3     1  UNL1        0.0000
      5 C          -2.9486    1.5019   -5.6826 C.3     1  UNL1        0.0000
      6 C          -2.3018    0.4553   -6.6106 C.3     1  UNL1        0.0000
      7 C          -2.2057    0.9676   -8.0438 C.3     1  UNL1        0.0000
      8 C          -0.5008    1.1915   -3.7315 C.ar    1  UNL1        0.0000
      9 C           0.0951    1.8585   -4.8392 C.ar    1  UNL1        0.0000
     10 C           1.4851    2.1157   -4.8483 C.ar    1  UNL1        0.0000
     11 N           0.3298    0.8550   -2.7234 N.ar    1  UNL1        0.0000
     12 C           1.6605    1.0861   -2.6995 C.ar    1  UNL1        0.0000
     13 C           2.2877    1.7240   -3.7655 C.ar    1  UNL1        0.0000
     14 C           3.6799    1.9455   -3.7015 C.ar    1  UNL1        0.0000
     15 C           4.4166    1.5225   -2.5698 C.ar    1  UNL1        0.0000
     16 C           3.7623    0.8794   -1.4992 C.ar    1  UNL1        0.0000
     17 C           2.3826    0.6746   -1.5890 C.ar    1  UNL1        0.0000
     18 N           1.7156    0.0677   -0.5901 N.ar    1  UNL1        0.0000
     19 C           2.2985   -0.3808    0.5377 C.ar    1  UNL1        0.0000
     20 C           1.3955   -1.0237    1.5116 C.ar    1  UNL1        0.0000
     21 N           1.8421   -1.5579    2.6732 N.ar    1  UNL1        0.0000
     22 C           0.9856   -2.1709    3.5378 C.ar    1  UNL1        0.0000
     23 C           1.5537   -2.8196    4.7951 C.3     1  UNL1        0.0000
     24 C           2.0128   -1.7019    5.7563 C.3     1  UNL1        0.0000
     25 C           2.7791   -3.6877    4.4322 C.3     1  UNL1        0.0000
     26 C           0.5092   -3.7569    5.4671 C.3     1  UNL1        0.0000
     27 C          -0.8597   -3.0938    5.5602 C.3     1  UNL1        0.0000
     28 C          -1.4483   -2.7970    4.1514 C.3     1  UNL1        0.0000
     29 C          -2.6178   -1.8067    4.3418 C.3     1  UNL1        0.0000
     30 C          -1.9946   -4.0806    3.4887 C.3     1  UNL1        0.0000
     31 C          -0.3985   -2.1936    3.2249 C.ar    1  UNL1        0.0000
     32 N          -0.7994   -1.6614    2.0368 N.ar    1  UNL1        0.0000
     33 N           0.0709   -1.0987    1.2030 N.ar    1  UNL1        0.0000
     34 C           3.6873   -0.2096    0.6928 C.ar    1  UNL1        0.0000
     35 C           4.4208    0.4274   -0.3357 C.ar    1  UNL1        0.0000
     36 H          -4.6094    1.2209   -2.9250 H       1  UNL1        0.0000
     37 H          -5.1675    0.7881   -4.5718 H       1  UNL1        0.0000
     38 H          -4.3830   -0.4608   -3.5613 H       1  UNL1        0.0000
     39 H          -3.9613    1.6875   -6.1020 H       1  UNL1        0.0000
     40 H          -2.4747    2.5003   -5.6844 H       1  UNL1        0.0000
     41 H          -1.2903    0.1673   -6.2665 H       1  UNL1        0.0000
     42 H          -2.9245   -0.4659   -6.5993 H       1  UNL1        0.0000
     43 H          -3.2157    1.2120   -8.4361 H       1  UNL1        0.0000
     44 H          -1.7549    0.1835   -8.6883 H       1  UNL1        0.0000
     45 H          -1.5664    1.8747   -8.0853 H       1  UNL1        0.0000
     46 H          -0.4382    2.1944   -5.7011 H       1  UNL1        0.0000
     47 H           1.9278    2.6200   -5.6988 H       1  UNL1        0.0000
     48 H           4.1931    2.4401   -4.5168 H       1  UNL1        0.0000
     49 H           5.4846    1.6976   -2.5325 H       1  UNL1        0.0000
     50 H           2.7993   -1.0761    5.2813 H       1  UNL1        0.0000
     51 H           2.4349   -2.1373    6.6876 H       1  UNL1        0.0000
     52 H           1.1762   -1.0286    6.0325 H       1  UNL1        0.0000
     53 H           2.4948   -4.4857    3.7122 H       1  UNL1        0.0000
     54 H           3.2024   -4.1686    5.3406 H       1  UNL1        0.0000
     55 H           3.5805   -3.0746    3.9660 H       1  UNL1        0.0000
     56 H           0.3901   -4.6899    4.8773 H       1  UNL1        0.0000
     57 H           0.8691   -4.0595    6.4750 H       1  UNL1        0.0000
     58 H          -0.7361   -2.1532    6.1358 H       1  UNL1        0.0000
     59 H          -1.5678   -3.7285    6.1372 H       1  UNL1        0.0000
     60 H          -3.1020   -1.5663    3.3708 H       1  UNL1        0.0000
     61 H          -2.2565   -0.8556    4.7902 H       1  UNL1        0.0000
     62 H          -3.3921   -2.2388    5.0125 H       1  UNL1        0.0000
     63 H          -2.4619   -3.8460    2.5074 H       1  UNL1        0.0000
     64 H          -1.1897   -4.8210    3.3042 H       1  UNL1        0.0000
     65 H          -2.7673   -4.5545    4.1313 H       1  UNL1        0.0000
     66 H           4.1925   -0.5571    1.5849 H       1  UNL1        0.0000
     67 H           5.4891    0.5642   -0.2232 H       1  UNL1        0.0000
     68 EU         -0.5592   -0.1879   -0.8902 Eu      1  UNL1        0.0000
@<TRIPOS>BOND
     1     1     2    2
     2     2     3   am
     3     3     4    1
     4     3     5    1
     5     5     6    1
     6     6     7    1
     7     2     8    1
     8     8     9   ar
     9     9    10   ar
    10     8    11   ar
    11    11    12   ar
    12    12    13   ar
    13    10    13   ar
    14    13    14   ar
    15    14    15   ar
    16    15    16   ar
    17    16    17   ar
    18    12    17   ar
    19    17    18   ar
    20    18    19   ar
    21    19    20    1
    22    20    21   ar
    23    21    22   ar
    24    22    23    1
    25    23    24    1
    26    23    25    1
    27    23    26    1
    28    26    27    1
    29    27    28    1
    30    28    29    1
    31    28    30    1
    32    22    31   ar
    33    28    31    1
    34    31    32   ar
    35    32    33   ar
    36    20    33   ar
    37    19    34   ar
    38    34    35   ar
    39    16    35   ar
    40     4    36    1
    41     4    37    1
    42     4    38    1
    43     5    39    1
    44     5    40    1
    45     6    41    1
    46     6    42    1
    47     7    43    1
    48     7    44    1
    49     7    45    1
    50     9    46    1
    51    10    47    1
    52    14    48    1
    53    15    49    1
    54    24    50    1
    55    24    51    1
    56    24    52    1
    57    25    53    1
    58    25    54    1
    59    25    55    1
    60    26    56    1
    61    26    57    1
    62    27    58    1
    63    27    59    1
    64    29    60    1
    65    29    61    1
    66    29    62    1
    67    30    63    1
    68    30    64    1
    69    30    65    1
    70    34    66    1
    71    35    67    1
    72    68     1    1
    73    68    33    1
    74    68    18    1
    75    68    11    1
@<TRIPOS>MOLECULE
*****
 68 75 0 0 0
SMALL
GASTEIGER

@<TRIPOS>ATOM
      1 O          -2.1801    0.2522   -2.3843 O.2     1  UNL1        0.0000
      2 C          -1.9555    0.8007   -3.4740 C.2     1  UNL1        0.0000
      3 N          -3.0367    0.9864   -4.3211 N.am    1  UNL1        0.0000
      4 C          -4.3631    0.6179   -3.8260 C.3     1  UNL1        0.0000
      5 C          -2.9485    1.5020   -5.6826 C.3     1  UNL1        0.0000
      6 C          -2.3019    0.4559   -6.6110 C.3     1  UNL1        0.0000
      7 C          -2.2057    0.9687   -8.0440 C.3     1  UNL1        0.0000
      8 C          -0.5009    1.1918   -3.7314 C.ar    1  UNL1        0.0000
      9 C           0.0951    1.8583   -4.8392 C.ar    1  UNL1        0.0000
     10 C           1.4851    2.1156   -4.8483 C.ar    1  UNL1        0.0000
     11 N           0.3298    0.8547   -2.7235 N.ar    1  UNL1        0.0000
     12 C           1.6604    1.0858   -2.6996 C.ar    1  UNL1        0.0000
     13 C           2.2877    1.7240   -3.7655 C.ar    1  UNL1        0.0000
     14 C           3.6799    1.9453   -3.7014 C.ar    1  UNL1        0.0000
     15 C           4.4166    1.5224   -2.5698 C.ar    1  UNL1        0.0000
     16 C           3.7622    0.8792   -1.4994 C.ar    1  UNL1        0.0000
     17 C           2.3825    0.6743   -1.5890 C.ar    1  UNL1        0.0000
     18 N           1.7156    0.0674   -0.5902 N.ar    1  UNL1        0.0000
     19 C           2.2987   -0.3811    0.5376 C.ar    1  UNL1        0.0000
     20 C           1.3957   -1.0239    1.5113 C.ar    1  UNL1        0.0000
     21 N           1.8419   -1.5581    2.6731 N.ar    1  UNL1        0.0000
     22 C           0.9857   -2.1710    3.5377 C.ar    1  UNL1        0.0000
     23 C           1.5537   -2.8195    4.7952 C.3     1  UNL1        0.0000
     24 C           2.0129   -1.7014    5.7560 C.3     1  UNL1        0.0000
     25 C           2.7791   -3.6877    4.4326 C.3     1  UNL1        0.0000
     26 C           0.5093   -3.7565    5.4676 C.3     1  UNL1        0.0000
     27 C          -0.8597   -3.0934    5.5604 C.3     1  UNL1        0.0000
     28 C          -1.4482   -2.7971    4.1514 C.3     1  UNL1        0.0000
     29 C          -2.6179   -1.8069    4.3415 C.3     1  UNL1        0.0000
     30 C          -1.9943   -4.0811    3.4892 C.3     1  UNL1        0.0000
     31 C          -0.3985   -2.1940    3.2249 C.ar    1  UNL1        0.0000
     32 N          -0.7992   -1.6617    2.0364 N.ar    1  UNL1        0.0000
     33 N           0.0709   -1.0993    1.2031 N.ar    1  UNL1        0.0000
     34 C           3.6872   -0.2098    0.6927 C.ar    1  UNL1        0.0000
     35 C           4.4207    0.4270   -0.3357 C.ar    1  UNL1        0.0000
     36 H          -4.6094    1.2202   -2.9251 H       1  UNL1        0.0000
     37 H          -5.1675    0.7878   -4.5720 H       1  UNL1        0.0000
     38 H          -4.3829   -0.4613   -3.5618 H       1  UNL1        0.0000
     39 H          -3.9613    1.6878   -6.1019 H       1  UNL1        0.0000
     40 H          -2.4747    2.5004   -5.6841 H       1  UNL1        0.0000
     41 H          -1.2904    0.1676   -6.2670 H       1  UNL1        0.0000
     42 H          -2.9246   -0.4654   -6.6001 H       1  UNL1        0.0000
     43 H          -3.2157    1.2133   -8.4362 H       1  UNL1        0.0000
     44 H          -1.7550    0.1848   -8.6888 H       1  UNL1        0.0000
     45 H          -1.5664    1.8758   -8.0851 H       1  UNL1        0.0000
     46 H          -0.4382    2.1943   -5.7012 H       1  UNL1        0.0000
     47 H           1.9278    2.6200   -5.6987 H       1  UNL1        0.0000
     48 H           4.1930    2.4401   -4.5167 H       1  UNL1        0.0000
     49 H           5.4846    1.6974   -2.5325 H       1  UNL1        0.0000
     50 H           2.7994   -1.0758    5.2809 H       1  UNL1        0.0000
     51 H           2.4350   -2.1366    6.6875 H       1  UNL1        0.0000
     52 H           1.1763   -1.0281    6.0321 H       1  UNL1        0.0000
     53 H           2.4948   -4.4860    3.7129 H       1  UNL1        0.0000
     54 H           3.2025   -4.1683    5.3411 H       1  UNL1        0.0000
     55 H           3.5805   -3.0748    3.9661 H       1  UNL1        0.0000
     56 H           0.3902   -4.6898    4.8782 H       1  UNL1        0.0000
     57 H           0.8691   -4.0587    6.4756 H       1  UNL1        0.0000
     58 H          -0.7361   -2.1526    6.1356 H       1  UNL1        0.0000
     59 H          -1.5677   -3.7279    6.1376 H       1  UNL1        0.0000
     60 H          -3.1021   -1.5669    3.3704 H       1  UNL1        0.0000
     61 H          -2.2567   -0.8556    4.7896 H       1  UNL1        0.0000
     62 H          -3.3921   -2.2389    5.0123 H       1  UNL1        0.0000
     63 H          -2.4616   -3.8468    2.5078 H       1  UNL1        0.0000
     64 H          -1.1894   -4.8214    3.3050 H       1  UNL1        0.0000
     65 H          -2.7671   -4.5548    4.1319 H       1  UNL1        0.0000
     66 H           4.1925   -0.5575    1.5848 H       1  UNL1        0.0000
     67 H           5.4890    0.5639   -0.2232 H       1  UNL1        0.0000
     68 EU         -0.5592   -0.1884   -0.8904 Eu      1  UNL1        0.0000
@<TRIPOS>BOND
     1     1     2    2
     2     2     3   am
     3     3     4    1
     4     3     5    1
     5     5     6    1
     6     6     7    1
     7     2     8    1
     8     8     9   ar
     9     9    10   ar
    10     8    11   ar
    11    11    12   ar
    12    12    13   ar
    13    10    13   ar
    14    13    14   ar
    15    14    15   ar
    16    15    16   ar
    17    16    17   ar
    18    12    17   ar
    19    17    18   ar
    20    18    19   ar
    21    19    20    1
    22    20    21   ar
    23    21    22   ar
    24    22    23    1
    25    23    24    1
    26    23    25    1
    27    23    26    1
    28    26    27    1
    29    27    28    1
    30    28    29    1
    31    28    30    1
    32    22    31   ar
    33    28    31    1
    34    31    32   ar
    35    32    33   ar
    36    20    33   ar
    37    19    34   ar
    38    34    35   ar
    39    16    35   ar
    40     4    36    1
    41     4    37    1
    42     4    38    1
    43     5    39    1
    44     5    40    1
    45     6    41    1
    46     6    42    1
    47     7    43    1
    48     7    44    1
    49     7    45    1
    50     9    46    1
    51    10    47    1
    52    14    48    1
    53    15    49    1
    54    24    50    1
    55    24    51    1
    56    24    52    1
    57    25    53    1
    58    25    54    1
    59    25    55    1
    60    26    56    1
    61    26    57    1
    62    27    58    1
    63    27    59    1
    64    29    60    1
    65    29    61    1
    66    29    62    1
    67    30    63    1
    68    30    64    1
    69    30    65    1
    70    34    66    1
    71    35    67    1
    72    68     1    1
    73    68    33    1
    74    68    18    1
    75    68    11    1
@<TRIPOS>MOLECULE
*****
 68 75 0 0 0
SMALL
GASTEIGER

@<TRIPOS>ATOM
      1 O          -2.1801    0.2520   -2.3844 O.2     1  UNL1        0.0000
      2 C          -1.9555    0.8007   -3.4740 C.2     1  UNL1        0.0000
      3 N          -3.0366    0.9863   -4.3211 N.am    1  UNL1        0.0000
      4 C          -4.3632    0.6179   -3.8261 C.3     1  UNL1        0.0000
      5 C          -2.9486    1.5022   -5.6826 C.3     1  UNL1        0.0000
      6 C          -2.3019    0.4559   -6.6110 C.3     1  UNL1        0.0000
      7 C          -2.2057    0.9690   -8.0441 C.3     1  UNL1        0.0000
      8 C          -0.5009    1.1917   -3.7315 C.ar    1  UNL1        0.0000
      9 C           0.0951    1.8583   -4.8392 C.ar    1  UNL1        0.0000
     10 C           1.4851    2.1156   -4.8482 C.ar    1  UNL1        0.0000
     11 N           0.3298    0.8547   -2.7235 N.ar    1  UNL1        0.0000
     12 C           1.6604    1.0858   -2.6996 C.ar    1  UNL1        0.0000
     13 C           2.2877    1.7240   -3.7655 C.ar    1  UNL1        0.0000
     14 C           3.6798    1.9453   -3.7014 C.ar    1  UNL1        0.0000
     15 C           4.4165    1.5223   -2.5698 C.ar    1  UNL1        0.0000
     16 C           3.7622    0.8791   -1.4993 C.ar    1  UNL1        0.0000
     17 C           2.3825    0.6743   -1.5890 C.ar    1  UNL1        0.0000
     18 N           1.7157    0.0673   -0.5902 N.ar    1  UNL1        0.0000
     19 C           2.2986   -0.3811    0.5376 C.ar    1  UNL1        0.0000
     20 C           1.3956   -1.0240    1.5113 C.ar    1  UNL1        0.0000
     21 N           1.8420   -1.5581    2.6731 N.ar    1  UNL1        0.0000
     22 C           0.9856   -2.1710    3.5377 C.ar    1  UNL1        0.0000
     23 C           1.5537   -2.8194    4.7952 C.3     1  UNL1        0.0000
     24 C           2.0129   -1.7014    5.7560 C.3     1  UNL1        0.0000
     25 C           2.7791   -3.6877    4.4327 C.3     1  UNL1        0.0000
     26 C           0.5093   -3.7565    5.4677 C.3     1  UNL1        0.0000
     27 C          -0.8597   -3.0933    5.5605 C.3     1  UNL1        0.0000
     28 C          -1.4482   -2.7971    4.1515 C.3     1  UNL1        0.0000
     29 C          -2.6179   -1.8070    4.3414 C.3     1  UNL1        0.0000
     30 C          -1.9943   -4.0812    3.4892 C.3     1  UNL1        0.0000
     31 C          -0.3986   -2.1940    3.2250 C.ar    1  UNL1        0.0000
     32 N          -0.7992   -1.6619    2.0365 N.ar    1  UNL1        0.0000
     33 N           0.0709   -1.0994    1.2029 N.ar    1  UNL1        0.0000
     34 C           3.6872   -0.2099    0.6927 C.ar    1  UNL1        0.0000
     35 C           4.4207    0.4270   -0.3358 C.ar    1  UNL1        0.0000
     36 H          -4.6094    1.2201   -2.9251 H       1  UNL1        0.0000
     37 H          -5.1674    0.7878   -4.5720 H       1  UNL1        0.0000
     38 H          -4.3829   -0.4614   -3.5620 H       1  UNL1        0.0000
     39 H          -3.9613    1.6879   -6.1019 H       1  UNL1        0.0000
     40 H          -2.4747    2.5005   -5.6840 H       1  UNL1        0.0000
     41 H          -1.2905    0.1677   -6.2671 H       1  UNL1        0.0000
     42 H          -2.9246   -0.4652   -6.6003 H       1  UNL1        0.0000
     43 H          -3.2157    1.2136   -8.4362 H       1  UNL1        0.0000
     44 H          -1.7550    0.1851   -8.6889 H       1  UNL1        0.0000
     45 H          -1.5664    1.8761   -8.0851 H       1  UNL1        0.0000
     46 H          -0.4382    2.1942   -5.7012 H       1  UNL1        0.0000
     47 H           1.9278    2.6200   -5.6987 H       1  UNL1        0.0000
     48 H           4.1930    2.4400   -4.5167 H       1  UNL1        0.0000
     49 H           5.4846    1.6974   -2.5324 H       1  UNL1        0.0000
     50 H           2.7994   -1.0757    5.2808 H       1  UNL1        0.0000
     51 H           2.4351   -2.1364    6.6874 H       1  UNL1        0.0000
     52 H           1.1763   -1.0280    6.0320 H       1  UNL1        0.0000
     53 H           2.4948   -4.4861    3.7130 H       1  UNL1        0.0000
     54 H           3.2025   -4.1683    5.3412 H       1  UNL1        0.0000
     55 H           3.5805   -3.0748    3.9661 H       1  UNL1        0.0000
     56 H           0.3902   -4.6897    4.8784 H       1  UNL1        0.0000
     57 H           0.8691   -4.0585    6.4757 H       1  UNL1        0.0000
     58 H          -0.7361   -2.1525    6.1356 H       1  UNL1        0.0000
     59 H          -1.5677   -3.7278    6.1377 H       1  UNL1        0.0000
     60 H          -3.1021   -1.5671    3.3703 H       1  UNL1        0.0000
     61 H          -2.2568   -0.8556    4.7895 H       1  UNL1        0.0000
     62 H          -3.3921   -2.2389    5.0122 H       1  UNL1        0.0000
     63 H          -2.4615   -3.8470    2.5079 H       1  UNL1        0.0000
     64 H          -1.1893   -4.8215    3.3052 H       1  UNL1        0.0000
     65 H          -2.7670   -4.5549    4.1321 H       1  UNL1        0.0000
     66 H           4.1924   -0.5575    1.5848 H       1  UNL1        0.0000
     67 H           5.4890    0.5639   -0.2232 H       1  UNL1        0.0000
     68 EU         -0.5592   -0.1884   -0.8903 Eu      1  UNL1        0.0000
@<TRIPOS>BOND
     1     1     2    2
     2     2     3   am
     3     3     4    1
     4     3     5    1
     5     5     6    1
     6     6     7    1
     7     2     8    1
     8     8     9   ar
     9     9    10   ar
    10     8    11   ar
    11    11    12   ar
    12    12    13   ar
    13    10    13   ar
    14    13    14   ar
    15    14    15   ar
    16    15    16   ar
    17    16    17   ar
    18    12    17   ar
    19    17    18   ar
    20    18    19   ar
    21    19    20    1
    22    20    21   ar
    23    21    22   ar
    24    22    23    1
    25    23    24    1
    26    23    25    1
    27    23    26    1
    28    26    27    1
    29    27    28    1
    30    28    29    1
    31    28    30    1
    32    22    31   ar
    33    28    31    1
    34    31    32   ar
    35    32    33   ar
    36    20    33   ar
    37    19    34   ar
    38    34    35   ar
    39    16    35   ar
    40     4    36    1
    41     4    37    1
    42     4    38    1
    43     5    39    1
    44     5    40    1
    45     6    41    1
    46     6    42    1
    47     7    43    1
    48     7    44    1
    49     7    45    1
    50     9    46    1
    51    10    47    1
    52    14    48    1
    53    15    49    1
    54    24    50    1
    55    24    51    1
    56    24    52    1
    57    25    53    1
    58    25    54    1
    59    25    55    1
    60    26    56    1
    61    26    57    1
    62    27    58    1
    63    27    59    1
    64    29    60    1
    65    29    61    1
    66    29    62    1
    67    30    63    1
    68    30    64    1
    69    30    65    1
    70    34    66    1
    71    35    67    1
    72    68     1    1
    73    68    33    1
    74    68    18    1
    75    68    11    1
@<TRIPOS>MOLECULE
*****
 68 75 0 0 0
SMALL
GASTEIGER

@<TRIPOS>ATOM
      1 O          -2.1802    0.2517   -2.3845 O.2     1  UNL1        0.0000
      2 C          -1.9555    0.8005   -3.4741 C.2     1  UNL1        0.0000
      3 N          -3.0366    0.9862   -4.3212 N.am    1  UNL1        0.0000
      4 C          -4.3631    0.6176   -3.8262 C.3     1  UNL1        0.0000
      5 C          -2.9486    1.5022   -5.6826 C.3     1  UNL1        0.0000
      6 C          -2.3020    0.4564   -6.6113 C.3     1  UNL1        0.0000
      7 C          -2.2057    0.9696   -8.0441 C.3     1  UNL1        0.0000
      8 C          -0.5009    1.1916   -3.7315 C.ar    1  UNL1        0.0000
      9 C           0.0951    1.8582   -4.8392 C.ar    1  UNL1        0.0000
     10 C           1.4851    2.1155   -4.8482 C.ar    1  UNL1        0.0000
     11 N           0.3297    0.8545   -2.7235 N.ar    1  UNL1        0.0000
     12 C           1.6604    1.0856   -2.6996 C.ar    1  UNL1        0.0000
     13 C           2.2877    1.7239   -3.7655 C.ar    1  UNL1        0.0000
     14 C           3.6798    1.9453   -3.7014 C.ar    1  UNL1        0.0000
     15 C           4.4165    1.5222   -2.5698 C.ar    1  UNL1        0.0000
     16 C           3.7622    0.8790   -1.4994 C.ar    1  UNL1        0.0000
     17 C           2.3825    0.6740   -1.5892 C.ar    1  UNL1        0.0000
     18 N           1.7157    0.0671   -0.5903 N.ar    1  UNL1        0.0000
     19 C           2.2986   -0.3814    0.5372 C.ar    1  UNL1        0.0000
     20 C           1.3957   -1.0243    1.5111 C.ar    1  UNL1        0.0000
     21 N           1.8422   -1.5584    2.6730 N.ar    1  UNL1        0.0000
     22 C           0.9856   -2.1712    3.5376 C.ar    1  UNL1        0.0000
     23 C           1.5538   -2.8194    4.7953 C.3     1  UNL1        0.0000
     24 C           2.0130   -1.7010    5.7558 C.3     1  UNL1        0.0000
     25 C           2.7791   -3.6877    4.4329 C.3     1  UNL1        0.0000
     26 C           0.5093   -3.7562    5.4680 C.3     1  UNL1        0.0000
     27 C          -0.8597   -3.0930    5.5606 C.3     1  UNL1        0.0000
     28 C          -1.4481   -2.7972    4.1515 C.3     1  UNL1        0.0000
     29 C          -2.6179   -1.8071    4.3412 C.3     1  UNL1        0.0000
     30 C          -1.9941   -4.0815    3.4896 C.3     1  UNL1        0.0000
     31 C          -0.3985   -2.1944    3.2248 C.ar    1  UNL1        0.0000
     32 N          -0.7990   -1.6624    2.0362 N.ar    1  UNL1        0.0000
     33 N           0.0708   -1.0999    1.2026 N.ar    1  UNL1        0.0000
     34 C           3.6872   -0.2101    0.6926 C.ar    1  UNL1        0.0000
     35 C           4.4207    0.4268   -0.3358 C.ar    1  UNL1        0.0000
     36 H          -4.6095    1.2196   -2.9252 H       1  UNL1        0.0000
     37 H          -5.1674    0.7876   -4.5722 H       1  UNL1        0.0000
     38 H          -4.3828   -0.4617   -3.5623 H       1  UNL1        0.0000
     39 H          -3.9613    1.6881   -6.1018 H       1  UNL1        0.0000
     40 H          -2.4747    2.5007   -5.6838 H       1  UNL1        0.0000
     41 H          -1.2905    0.1679   -6.2674 H       1  UNL1        0.0000
     42 H          -2.9247   -0.4649   -6.6007 H       1  UNL1        0.0000
     43 H          -3.2157    1.2145   -8.4362 H       1  UNL1        0.0000
     44 H          -1.7551    0.1860   -8.6893 H       1  UNL1        0.0000
     45 H          -1.5664    1.8768   -8.0849 H       1  UNL1        0.0000
     46 H          -0.4382    2.1942   -5.7012 H       1  UNL1        0.0000
     47 H           1.9278    2.6200   -5.6987 H       1  UNL1        0.0000
     48 H           4.1930    2.4400   -4.5167 H       1  UNL1        0.0000
     49 H           5.4846    1.6973   -2.5324 H       1  UNL1        0.0000
     50 H           2.7994   -1.0756    5.2805 H       1  UNL1        0.0000
     51 H           2.4351   -2.1359    6.6874 H       1  UNL1        0.0000
     52 H           1.1764   -1.0276    6.0317 H       1  UNL1        0.0000
     53 H           2.4947   -4.4862    3.7135 H       1  UNL1        0.0000
     54 H           3.2025   -4.1681    5.3416 H       1  UNL1        0.0000
     55 H           3.5805   -3.0750    3.9663 H       1  UNL1        0.0000
     56 H           0.3903   -4.6896    4.8789 H       1  UNL1        0.0000
     57 H           0.8691   -4.0580    6.4761 H       1  UNL1        0.0000
     58 H          -0.7361   -2.1520    6.1355 H       1  UNL1        0.0000
     59 H          -1.5677   -3.7274    6.1380 H       1  UNL1        0.0000
     60 H          -3.1021   -1.5675    3.3700 H       1  UNL1        0.0000
     61 H          -2.2569   -0.8557    4.7890 H       1  UNL1        0.0000
     62 H          -3.3922   -2.2390    5.0121 H       1  UNL1        0.0000
     63 H          -2.4614   -3.8476    2.5082 H       1  UNL1        0.0000
     64 H          -1.1891   -4.8218    3.3057 H       1  UNL1        0.0000
     65 H          -2.7668   -4.5551    4.1325 H       1  UNL1        0.0000
     66 H           4.1924   -0.5578    1.5847 H       1  UNL1        0.0000
     67 H           5.4890    0.5637   -0.2233 H       1  UNL1        0.0000
     68 EU         -0.5592   -0.1888   -0.8905 Eu      1  UNL1        0.0000
@<TRIPOS>BOND
     1     1     2    2
     2     2     3   am
     3     3     4    1
     4     3     5    1
     5     5     6    1
     6     6     7    1
     7     2     8    1
     8     8     9   ar
     9     9    10   ar
    10     8    11   ar
    11    11    12   ar
    12    12    13   ar
    13    10    13   ar
    14    13    14   ar
    15    14    15   ar
    16    15    16   ar
    17    16    17   ar
    18    12    17   ar
    19    17    18   ar
    20    18    19   ar
    21    19    20    1
    22    20    21   ar
    23    21    22   ar
    24    22    23    1
    25    23    24    1
    26    23    25    1
    27    23    26    1
    28    26    27    1
    29    27    28    1
    30    28    29    1
    31    28    30    1
    32    22    31   ar
    33    28    31    1
    34    31    32   ar
    35    32    33   ar
    36    20    33   ar
    37    19    34   ar
    38    34    35   ar
    39    16    35   ar
    40     4    36    1
    41     4    37    1
    42     4    38    1
    43     5    39    1
    44     5    40    1
    45     6    41    1
    46     6    42    1
    47     7    43    1
    48     7    44    1
    49     7    45    1
    50     9    46    1
    51    10    47    1
    52    14    48    1
    53    15    49    1
    54    24    50    1
    55    24    51    1
    56    24    52    1
    57    25    53    1
    58    25    54    1
    59    25    55    1
    60    26    56    1
    61    26    57    1
    62    27    58    1
    63    27    59    1
    64    29    60    1
    65    29    61    1
    66    29    62    1
    67    30    63    1
    68    30    64    1
    69    30    65    1
    70    34    66    1
    71    35    67    1
    72    68     1    1
    73    68    33    1
    74    68    18    1
    75    68    11    1
@<TRIPOS>MOLECULE
*****
 68 75 0 0 0
SMALL
GASTEIGER

@<TRIPOS>ATOM
      1 O          -2.1801    0.2514   -2.3846 O.2     1  UNL1        0.0000
      2 C          -1.9556    0.8003   -3.4743 C.2     1  UNL1        0.0000
      3 N          -3.0366    0.9861   -4.3212 N.am    1  UNL1        0.0000
      4 C          -4.3631    0.6173   -3.8264 C.3     1  UNL1        0.0000
      5 C          -2.9486    1.5024   -5.6826 C.3     1  UNL1        0.0000
      6 C          -2.3021    0.4568   -6.6117 C.3     1  UNL1        0.0000
      7 C          -2.2057    0.9704   -8.0442 C.3     1  UNL1        0.0000
      8 C          -0.5009    1.1914   -3.7315 C.ar    1  UNL1        0.0000
      9 C           0.0950    1.8582   -4.8392 C.ar    1  UNL1        0.0000
     10 C           1.4850    2.1155   -4.8482 C.ar    1  UNL1        0.0000
     11 N           0.3298    0.8543   -2.7236 N.ar    1  UNL1        0.0000
     12 C           1.6604    1.0855   -2.6996 C.ar    1  UNL1        0.0000
     13 C           2.2877    1.7238   -3.7655 C.ar    1  UNL1        0.0000
     14 C           3.6797    1.9451   -3.7014 C.ar    1  UNL1        0.0000
     15 C           4.4165    1.5221   -2.5699 C.ar    1  UNL1        0.0000
     16 C           3.7621    0.8788   -1.4994 C.ar    1  UNL1        0.0000
     17 C           2.3825    0.6738   -1.5892 C.ar    1  UNL1        0.0000
     18 N           1.7156    0.0667   -0.5902 N.ar    1  UNL1        0.0000
     19 C           2.2987   -0.3815    0.5373 C.ar    1  UNL1        0.0000
     20 C           1.3958   -1.0252    1.5111 C.ar    1  UNL1        0.0000
     21 N           1.8422   -1.5584    2.6726 N.ar    1  UNL1        0.0000
     22 C           0.9858   -2.1715    3.5378 C.ar    1  UNL1        0.0000
     23 C           1.5539   -2.8192    4.7954 C.3     1  UNL1        0.0000
     24 C           2.0130   -1.7007    5.7556 C.3     1  UNL1        0.0000
     25 C           2.7791   -3.6877    4.4332 C.3     1  UNL1        0.0000
     26 C           0.5093   -3.7559    5.4684 C.3     1  UNL1        0.0000
     27 C          -0.8597   -3.0927    5.5607 C.3     1  UNL1        0.0000
     28 C          -1.4480   -2.7975    4.1516 C.3     1  UNL1        0.0000
     29 C          -2.6180   -1.8073    4.3409 C.3     1  UNL1        0.0000
     30 C          -1.9939   -4.0818    3.4899 C.3     1  UNL1        0.0000
     31 C          -0.3983   -2.1943    3.2246 C.ar    1  UNL1        0.0000
     32 N          -0.7993   -1.6628    2.0359 N.ar    1  UNL1        0.0000
     33 N           0.0714   -1.1001    1.2026 N.ar    1  UNL1        0.0000
     34 C           3.6871   -0.2104    0.6926 C.ar    1  UNL1        0.0000
     35 C           4.4206    0.4266   -0.3359 C.ar    1  UNL1        0.0000
     36 H          -4.6095    1.2192   -2.9252 H       1  UNL1        0.0000
     37 H          -5.1674    0.7874   -4.5723 H       1  UNL1        0.0000
     38 H          -4.3827   -0.4620   -3.5627 H       1  UNL1        0.0000
     39 H          -3.9614    1.6884   -6.1017 H       1  UNL1        0.0000
     40 H          -2.4747    2.5008   -5.6836 H       1  UNL1        0.0000
     41 H          -1.2906    0.1681   -6.2678 H       1  UNL1        0.0000
     42 H          -2.9248   -0.4645   -6.6013 H       1  UNL1        0.0000
     43 H          -3.2157    1.2154   -8.4363 H       1  UNL1        0.0000
     44 H          -1.7551    0.1870   -8.6896 H       1  UNL1        0.0000
     45 H          -1.5664    1.8776   -8.0848 H       1  UNL1        0.0000
     46 H          -0.4382    2.1942   -5.7012 H       1  UNL1        0.0000
     47 H           1.9277    2.6200   -5.6986 H       1  UNL1        0.0000
     48 H           4.1929    2.4400   -4.5167 H       1  UNL1        0.0000
     49 H           5.4845    1.6972   -2.5324 H       1  UNL1        0.0000
     50 H           2.7995   -1.0754    5.2802 H       1  UNL1        0.0000
     51 H           2.4352   -2.1354    6.6873 H       1  UNL1        0.0000
     52 H           1.1765   -1.0272    6.0314 H       1  UNL1        0.0000
     53 H           2.4947   -4.4864    3.7140 H       1  UNL1        0.0000
     54 H           3.2025   -4.1679    5.3420 H       1  UNL1        0.0000
     55 H           3.5806   -3.0751    3.9664 H       1  UNL1        0.0000
     56 H           0.3903   -4.6895    4.8795 H       1  UNL1        0.0000
     57 H           0.8692   -4.0574    6.4766 H       1  UNL1        0.0000
     58 H          -0.7361   -2.1516    6.1353 H       1  UNL1        0.0000
     59 H          -1.5677   -3.7269    6.1383 H       1  UNL1        0.0000
     60 H          -3.1022   -1.5679    3.3697 H       1  UNL1        0.0000
     61 H          -2.2570   -0.8557    4.7885 H       1  UNL1        0.0000
     62 H          -3.3922   -2.2390    5.0119 H       1  UNL1        0.0000
     63 H          -2.4612   -3.8482    2.5084 H       1  UNL1        0.0000
     64 H          -1.1889   -4.8221    3.3062 H       1  UNL1        0.0000
     65 H          -2.7667   -4.5554    4.1329 H       1  UNL1        0.0000
     66 H           4.1924   -0.5580    1.5845 H       1  UNL1        0.0000
     67 H           5.4890    0.5635   -0.2233 H       1  UNL1        0.0000
     68 EU         -0.5592   -0.1891   -0.8906 Eu      1  UNL1        0.0000
@<TRIPOS>BOND
     1     1     2    2
     2     2     3   am
     3     3     4    1
     4     3     5    1
     5     5     6    1
     6     6     7    1
     7     2     8    1
     8     8     9   ar
     9     9    10   ar
    10     8    11   ar
    11    11    12   ar
    12    12    13   ar
    13    10    13   ar
    14    13    14   ar
    15    14    15   ar
    16    15    16   ar
    17    16    17   ar
    18    12    17   ar
    19    17    18   ar
    20    18    19   ar
    21    19    20    1
    22    20    21   ar
    23    21    22   ar
    24    22    23    1
    25    23    24    1
    26    23    25    1
    27    23    26    1
    28    26    27    1
    29    27    28    1
    30    28    29    1
    31    28    30    1
    32    22    31   ar
    33    28    31    1
    34    31    32   ar
    35    32    33   ar
    36    20    33   ar
    37    19    34   ar
    38    34    35   ar
    39    16    35   ar
    40     4    36    1
    41     4    37    1
    42     4    38    1
    43     5    39    1
    44     5    40    1
    45     6    41    1
    46     6    42    1
    47     7    43    1
    48     7    44    1
    49     7    45    1
    50     9    46    1
    51    10    47    1
    52    14    48    1
    53    15    49    1
    54    24    50    1
    55    24    51    1
    56    24    52    1
    57    25    53    1
    58    25    54    1
    59    25    55    1
    60    26    56    1
    61    26    57    1
    62    27    58    1
    63    27    59    1
    64    29    60    1
    65    29    61    1
    66    29    62    1
    67    30    63    1
    68    30    64    1
    69    30    65    1
    70    34    66    1
    71    35    67    1
    72    68     1    1
    73    68    33    1
    74    68    18    1
    75    68    11    1
@<TRIPOS>MOLECULE
*****
 68 75 0 0 0
SMALL
GASTEIGER

@<TRIPOS>ATOM
      1 O          -2.1801    0.2513   -2.3847 O.2     1  UNL1        0.0000
      2 C          -1.9556    0.8002   -3.4743 C.2     1  UNL1        0.0000
      3 N          -3.0366    0.9860   -4.3214 N.am    1  UNL1        0.0000
      4 C          -4.3631    0.6171   -3.8265 C.3     1  UNL1        0.0000
      5 C          -2.9486    1.5025   -5.6825 C.3     1  UNL1        0.0000
      6 C          -2.3020    0.4569   -6.6116 C.3     1  UNL1        0.0000
      7 C          -2.2058    0.9708   -8.0443 C.3     1  UNL1        0.0000
      8 C          -0.5009    1.1913   -3.7316 C.ar    1  UNL1        0.0000
      9 C           0.0950    1.8581   -4.8392 C.ar    1  UNL1        0.0000
     10 C           1.4850    2.1155   -4.8482 C.ar    1  UNL1        0.0000
     11 N           0.3297    0.8541   -2.7236 N.ar    1  UNL1        0.0000
     12 C           1.6604    1.0854   -2.6997 C.ar    1  UNL1        0.0000
     13 C           2.2876    1.7237   -3.7655 C.ar    1  UNL1        0.0000
     14 C           3.6798    1.9452   -3.7014 C.ar    1  UNL1        0.0000
     15 C           4.4164    1.5220   -2.5699 C.ar    1  UNL1        0.0000
     16 C           3.7622    0.8787   -1.4995 C.ar    1  UNL1        0.0000
     17 C           2.3824    0.6738   -1.5891 C.ar    1  UNL1        0.0000
     18 N           1.7157    0.0666   -0.5904 N.ar    1  UNL1        0.0000
     19 C           2.2987   -0.3819    0.5373 C.ar    1  UNL1        0.0000
     20 C           1.3958   -1.0248    1.5110 C.ar    1  UNL1        0.0000
     21 N           1.8422   -1.5588    2.6728 N.ar    1  UNL1        0.0000
     22 C           0.9858   -2.1714    3.5376 C.ar    1  UNL1        0.0000
     23 C           1.5538   -2.8192    4.7955 C.3     1  UNL1        0.0000
     24 C           2.0131   -1.7006    5.7556 C.3     1  UNL1        0.0000
     25 C           2.7791   -3.6877    4.4333 C.3     1  UNL1        0.0000
     26 C           0.5094   -3.7558    5.4685 C.3     1  UNL1        0.0000
     27 C          -0.8596   -3.0926    5.5608 C.3     1  UNL1        0.0000
     28 C          -1.4480   -2.7974    4.1515 C.3     1  UNL1        0.0000
     29 C          -2.6180   -1.8074    4.3408 C.3     1  UNL1        0.0000
     30 C          -1.9939   -4.0820    3.4901 C.3     1  UNL1        0.0000
     31 C          -0.3983   -2.1947    3.2247 C.ar    1  UNL1        0.0000
     32 N          -0.7990   -1.6629    2.0361 N.ar    1  UNL1        0.0000
     33 N           0.0710   -1.1004    1.2023 N.ar    1  UNL1        0.0000
     34 C           3.6872   -0.2105    0.6925 C.ar    1  UNL1        0.0000
     35 C           4.4207    0.4266   -0.3359 C.ar    1  UNL1        0.0000
     36 H          -4.6095    1.2189   -2.9253 H       1  UNL1        0.0000
     37 H          -5.1674    0.7873   -4.5724 H       1  UNL1        0.0000
     38 H          -4.3827   -0.4622   -3.5629 H       1  UNL1        0.0000
     39 H          -3.9614    1.6886   -6.1017 H       1  UNL1        0.0000
     40 H          -2.4747    2.5009   -5.6834 H       1  UNL1        0.0000
     41 H          -1.2907    0.1682   -6.2680 H       1  UNL1        0.0000
     42 H          -2.9249   -0.4643   -6.6015 H       1  UNL1        0.0000
     43 H          -3.2157    1.2159   -8.4363 H       1  UNL1        0.0000
     44 H          -1.7551    0.1875   -8.6898 H       1  UNL1        0.0000
     45 H          -1.5664    1.8780   -8.0847 H       1  UNL1        0.0000
     46 H          -0.4383    2.1942   -5.7012 H       1  UNL1        0.0000
     47 H           1.9277    2.6200   -5.6986 H       1  UNL1        0.0000
     48 H           4.1929    2.4400   -4.5167 H       1  UNL1        0.0000
     49 H           5.4845    1.6972   -2.5324 H       1  UNL1        0.0000
     50 H           2.7996   -1.0753    5.2800 H       1  UNL1        0.0000
     51 H           2.4353   -2.1351    6.6872 H       1  UNL1        0.0000
     52 H           1.1765   -1.0270    6.0313 H       1  UNL1        0.0000
     53 H           2.4947   -4.4865    3.7142 H       1  UNL1        0.0000
     54 H           3.2025   -4.1678    5.3422 H       1  UNL1        0.0000
     55 H           3.5805   -3.0752    3.9664 H       1  UNL1        0.0000
     56 H           0.3904   -4.6895    4.8798 H       1  UNL1        0.0000
     57 H           0.8692   -4.0571    6.4768 H       1  UNL1        0.0000
     58 H          -0.7361   -2.1513    6.1353 H       1  UNL1        0.0000
     59 H          -1.5677   -3.7267    6.1384 H       1  UNL1        0.0000
     60 H          -3.1022   -1.5682    3.3696 H       1  UNL1        0.0000
     61 H          -2.2571   -0.8557    4.7883 H       1  UNL1        0.0000
     62 H          -3.3922   -2.2391    5.0119 H       1  UNL1        0.0000
     63 H          -2.4611   -3.8485    2.5086 H       1  UNL1        0.0000
     64 H          -1.1888   -4.8223    3.3065 H       1  UNL1        0.0000
     65 H          -2.7665   -4.5555    4.1332 H       1  UNL1        0.0000
     66 H           4.1924   -0.5581    1.5845 H       1  UNL1        0.0000
     67 H           5.4889    0.5634   -0.2233 H       1  UNL1        0.0000
     68 EU         -0.5592   -0.1893   -0.8907 Eu      1  UNL1        0.0000
@<TRIPOS>BOND
     1     1     2    2
     2     2     3   am
     3     3     4    1
     4     3     5    1
     5     5     6    1
     6     6     7    1
     7     2     8    1
     8     8     9   ar
     9     9    10   ar
    10     8    11   ar
    11    11    12   ar
    12    12    13   ar
    13    10    13   ar
    14    13    14   ar
    15    14    15   ar
    16    15    16   ar
    17    16    17   ar
    18    12    17   ar
    19    17    18   ar
    20    18    19   ar
    21    19    20    1
    22    20    21   ar
    23    21    22   ar
    24    22    23    1
    25    23    24    1
    26    23    25    1
    27    23    26    1
    28    26    27    1
    29    27    28    1
    30    28    29    1
    31    28    30    1
    32    22    31   ar
    33    28    31    1
    34    31    32   ar
    35    32    33   ar
    36    20    33   ar
    37    19    34   ar
    38    34    35   ar
    39    16    35   ar
    40     4    36    1
    41     4    37    1
    42     4    38    1
    43     5    39    1
    44     5    40    1
    45     6    41    1
    46     6    42    1
    47     7    43    1
    48     7    44    1
    49     7    45    1
    50     9    46    1
    51    10    47    1
    52    14    48    1
    53    15    49    1
    54    24    50    1
    55    24    51    1
    56    24    52    1
    57    25    53    1
    58    25    54    1
    59    25    55    1
    60    26    56    1
    61    26    57    1
    62    27    58    1
    63    27    59    1
    64    29    60    1
    65    29    61    1
    66    29    62    1
    67    30    63    1
    68    30    64    1
    69    30    65    1
    70    34    66    1
    71    35    67    1
    72    68     1    1
    73    68    33    1
    74    68    18    1
    75    68    11    1
@<TRIPOS>MOLECULE
*****
 68 75 0 0 0
SMALL
GASTEIGER

@<TRIPOS>ATOM
      1 O          -2.1801    0.2510   -2.3848 O.2     1  UNL1        0.0000
      2 C          -1.9556    0.7999   -3.4745 C.2     1  UNL1        0.0000
      3 N          -3.0366    0.9859   -4.3214 N.am    1  UNL1        0.0000
      4 C          -4.3631    0.6169   -3.8266 C.3     1  UNL1        0.0000
      5 C          -2.9486    1.5027   -5.6825 C.3     1  UNL1        0.0000
      6 C          -2.3021    0.4571   -6.6119 C.3     1  UNL1        0.0000
      7 C          -2.2058    0.9715   -8.0444 C.3     1  UNL1        0.0000
      8 C          -0.5009    1.1911   -3.7316 C.ar    1  UNL1        0.0000
      9 C           0.0950    1.8581   -4.8393 C.ar    1  UNL1        0.0000
     10 C           1.4850    2.1153   -4.8483 C.ar    1  UNL1        0.0000
     11 N           0.3297    0.8540   -2.7237 N.ar    1  UNL1        0.0000
     12 C           1.6604    1.0851   -2.6997 C.ar    1  UNL1        0.0000
     13 C           2.2876    1.7237   -3.7655 C.ar    1  UNL1        0.0000
     14 C           3.6797    1.9450   -3.7014 C.ar    1  UNL1        0.0000
     15 C           4.4164    1.5220   -2.5699 C.ar    1  UNL1        0.0000
     16 C           3.7621    0.8784   -1.4996 C.ar    1  UNL1        0.0000
     17 C           2.3826    0.6736   -1.5894 C.ar    1  UNL1        0.0000
     18 N           1.7156    0.0664   -0.5905 N.ar    1  UNL1        0.0000
     19 C           2.2986   -0.3822    0.5371 C.ar    1  UNL1        0.0000
     20 C           1.3958   -1.0256    1.5108 C.ar    1  UNL1        0.0000
     21 N           1.8422   -1.5587    2.6726 N.ar    1  UNL1        0.0000
     22 C           0.9859   -2.1719    3.5374 C.ar    1  UNL1        0.0000
     23 C           1.5539   -2.8191    4.7955 C.3     1  UNL1        0.0000
     24 C           2.0131   -1.7003    5.7554 C.3     1  UNL1        0.0000
     25 C           2.7791   -3.6877    4.4336 C.3     1  UNL1        0.0000
     26 C           0.5094   -3.7555    5.4688 C.3     1  UNL1        0.0000
     27 C          -0.8596   -3.0923    5.5609 C.3     1  UNL1        0.0000
     28 C          -1.4479   -2.7977    4.1517 C.3     1  UNL1        0.0000
     29 C          -2.6180   -1.8075    4.3406 C.3     1  UNL1        0.0000
     30 C          -1.9937   -4.0822    3.4904 C.3     1  UNL1        0.0000
     31 C          -0.3984   -2.1947    3.2245 C.ar    1  UNL1        0.0000
     32 N          -0.7990   -1.6636    2.0355 N.ar    1  UNL1        0.0000
     33 N           0.0714   -1.1005    1.2023 N.ar    1  UNL1        0.0000
     34 C           3.6872   -0.2108    0.6924 C.ar    1  UNL1        0.0000
     35 C           4.4207    0.4264   -0.3360 C.ar    1  UNL1        0.0000
     36 H          -4.6095    1.2185   -2.9253 H       1  UNL1        0.0000
     37 H          -5.1674    0.7871   -4.5725 H       1  UNL1        0.0000
     38 H          -4.3826   -0.4625   -3.5632 H       1  UNL1        0.0000
     39 H          -3.9614    1.6888   -6.1016 H       1  UNL1        0.0000
     40 H          -2.4747    2.5010   -5.6832 H       1  UNL1        0.0000
     41 H          -1.2907    0.1684   -6.2682 H       1  UNL1        0.0000
     42 H          -2.9250   -0.4639   -6.6020 H       1  UNL1        0.0000
     43 H          -3.2157    1.2167   -8.4364 H       1  UNL1        0.0000
     44 H          -1.7552    0.1883   -8.6901 H       1  UNL1        0.0000
     45 H          -1.5664    1.8786   -8.0846 H       1  UNL1        0.0000
     46 H          -0.4383    2.1941   -5.7012 H       1  UNL1        0.0000
     47 H           1.9277    2.6200   -5.6986 H       1  UNL1        0.0000
     48 H           4.1929    2.4399   -4.5166 H       1  UNL1        0.0000
     49 H           5.4845    1.6971   -2.5324 H       1  UNL1        0.0000
     50 H           2.7996   -1.0751    5.2797 H       1  UNL1        0.0000
     51 H           2.4353   -2.1346    6.6872 H       1  UNL1        0.0000
     52 H           1.1766   -1.0267    6.0310 H       1  UNL1        0.0000
     53 H           2.4947   -4.4866    3.7146 H       1  UNL1        0.0000
     54 H           3.2025   -4.1676    5.3425 H       1  UNL1        0.0000
     55 H           3.5806   -3.0753    3.9665 H       1  UNL1        0.0000
     56 H           0.3904   -4.6894    4.8804 H       1  UNL1        0.0000
     57 H           0.8692   -4.0566    6.4771 H       1  UNL1        0.0000
     58 H          -0.7361   -2.1509    6.1352 H       1  UNL1        0.0000
     59 H          -1.5676   -3.7263    6.1387 H       1  UNL1        0.0000
     60 H          -3.1022   -1.5686    3.3693 H       1  UNL1        0.0000
     61 H          -2.2572   -0.8557    4.7879 H       1  UNL1        0.0000
     62 H          -3.3922   -2.2391    5.0117 H       1  UNL1        0.0000
     63 H          -2.4610   -3.8490    2.5088 H       1  UNL1        0.0000
     64 H          -1.1886   -4.8225    3.3070 H       1  UNL1        0.0000
     65 H          -2.7664   -4.5557    4.1335 H       1  UNL1        0.0000
     66 H           4.1925   -0.5584    1.5844 H       1  UNL1        0.0000
     67 H           5.4890    0.5633   -0.2234 H       1  UNL1        0.0000
     68 EU         -0.5592   -0.1895   -0.8907 Eu      1  UNL1        0.0000
@<TRIPOS>BOND
     1     1     2    2
     2     2     3   am
     3     3     4    1
     4     3     5    1
     5     5     6    1
     6     6     7    1
     7     2     8    1
     8     8     9   ar
     9     9    10   ar
    10     8    11   ar
    11    11    12   ar
    12    12    13   ar
    13    10    13   ar
    14    13    14   ar
    15    14    15   ar
    16    15    16   ar
    17    16    17   ar
    18    12    17   ar
    19    17    18   ar
    20    18    19   ar
    21    19    20    1
    22    20    21   ar
    23    21    22   ar
    24    22    23    1
    25    23    24    1
    26    23    25    1
    27    23    26    1
    28    26    27    1
    29    27    28    1
    30    28    29    1
    31    28    30    1
    32    22    31   ar
    33    28    31    1
    34    31    32   ar
    35    32    33   ar
    36    20    33   ar
    37    19    34   ar
    38    34    35   ar
    39    16    35   ar
    40     4    36    1
    41     4    37    1
    42     4    38    1
    43     5    39    1
    44     5    40    1
    45     6    41    1
    46     6    42    1
    47     7    43    1
    48     7    44    1
    49     7    45    1
    50     9    46    1
    51    10    47    1
    52    14    48    1
    53    15    49    1
    54    24    50    1
    55    24    51    1
    56    24    52    1
    57    25    53    1
    58    25    54    1
    59    25    55    1
    60    26    56    1
    61    26    57    1
    62    27    58    1
    63    27    59    1
    64    29    60    1
    65    29    61    1
    66    29    62    1
    67    30    63    1
    68    30    64    1
    69    30    65    1
    70    34    66    1
    71    35    67    1
    72    68     1    1
    73    68    33    1
    74    68    18    1
    75    68    11    1
@<TRIPOS>MOLECULE
*****
 68 75 0 0 0
SMALL
GASTEIGER

@<TRIPOS>ATOM
      1 O          -2.1801    0.2509   -2.3849 O.2     1  UNL1        0.0000
      2 C          -1.9556    0.7998   -3.4743 C.2     1  UNL1        0.0000
      3 N          -3.0366    0.9858   -4.3215 N.am    1  UNL1        0.0000
      4 C          -4.3631    0.6167   -3.8267 C.3     1  UNL1        0.0000
      5 C          -2.9486    1.5027   -5.6825 C.3     1  UNL1        0.0000
      6 C          -2.3021    0.4574   -6.6120 C.3     1  UNL1        0.0000
      7 C          -2.2058    0.9719   -8.0445 C.3     1  UNL1        0.0000
      8 C          -0.5009    1.1911   -3.7317 C.ar    1  UNL1        0.0000
      9 C           0.0950    1.8580   -4.8392 C.ar    1  UNL1        0.0000
     10 C           1.4850    2.1154   -4.8482 C.ar    1  UNL1        0.0000
     11 N           0.3297    0.8539   -2.7237 N.ar    1  UNL1        0.0000
     12 C           1.6604    1.0852   -2.6998 C.ar    1  UNL1        0.0000
     13 C           2.2876    1.7236   -3.7655 C.ar    1  UNL1        0.0000
     14 C           3.6797    1.9450   -3.7014 C.ar    1  UNL1        0.0000
     15 C           4.4164    1.5219   -2.5699 C.ar    1  UNL1        0.0000
     16 C           3.7622    0.8785   -1.4996 C.ar    1  UNL1        0.0000
     17 C           2.3824    0.6734   -1.5893 C.ar    1  UNL1        0.0000
     18 N           1.7157    0.0663   -0.5907 N.ar    1  UNL1        0.0000
     19 C           2.2987   -0.3822    0.5371 C.ar    1  UNL1        0.0000
     20 C           1.3958   -1.0253    1.5108 C.ar    1  UNL1        0.0000
     21 N           1.8421   -1.5591    2.6726 N.ar    1  UNL1        0.0000
     22 C           0.9859   -2.1716    3.5375 C.ar    1  UNL1        0.0000
     23 C           1.5539   -2.8191    4.7956 C.3     1  UNL1        0.0000
     24 C           2.0132   -1.7001    5.7553 C.3     1  UNL1        0.0000
     25 C           2.7791   -3.6877    4.4337 C.3     1  UNL1        0.0000
     26 C           0.5095   -3.7554    5.4690 C.3     1  UNL1        0.0000
     27 C          -0.8596   -3.0922    5.5609 C.3     1  UNL1        0.0000
     28 C          -1.4479   -2.7976    4.1515 C.3     1  UNL1        0.0000
     29 C          -2.6181   -1.8076    4.3405 C.3     1  UNL1        0.0000
     30 C          -1.9936   -4.0824    3.4906 C.3     1  UNL1        0.0000
     31 C          -0.3983   -2.1951    3.2245 C.ar    1  UNL1        0.0000
     32 N          -0.7990   -1.6635    2.0358 N.ar    1  UNL1        0.0000
     33 N           0.0712   -1.1011    1.2020 N.ar    1  UNL1        0.0000
     34 C           3.6872   -0.2109    0.6923 C.ar    1  UNL1        0.0000
     35 C           4.4206    0.4262   -0.3360 C.ar    1  UNL1        0.0000
     36 H          -4.6095    1.2183   -2.9254 H       1  UNL1        0.0000
     37 H          -5.1674    0.7870   -4.5726 H       1  UNL1        0.0000
     38 H          -4.3826   -0.4627   -3.5634 H       1  UNL1        0.0000
     39 H          -3.9614    1.6889   -6.1016 H       1  UNL1        0.0000
     40 H          -2.4747    2.5011   -5.6831 H       1  UNL1        0.0000
     41 H          -1.2907    0.1685   -6.2684 H       1  UNL1        0.0000
     42 H          -2.9250   -0.4637   -6.6022 H       1  UNL1        0.0000
     43 H          -3.2157    1.2172   -8.4364 H       1  UNL1        0.0000
     44 H          -1.7552    0.1888   -8.6903 H       1  UNL1        0.0000
     45 H          -1.5664    1.8790   -8.0845 H       1  UNL1        0.0000
     46 H          -0.4383    2.1941   -5.7012 H       1  UNL1        0.0000
     47 H           1.9276    2.6200   -5.6985 H       1  UNL1        0.0000
     48 H           4.1928    2.4399   -4.5166 H       1  UNL1        0.0000
     49 H           5.4845    1.6971   -2.5325 H       1  UNL1        0.0000
     50 H           2.7996   -1.0750    5.2796 H       1  UNL1        0.0000
     51 H           2.4354   -2.1344    6.6872 H       1  UNL1        0.0000
     52 H           1.1766   -1.0265    6.0308 H       1  UNL1        0.0000
     53 H           2.4947   -4.4867    3.7149 H       1  UNL1        0.0000
     54 H           3.2026   -4.1675    5.3427 H       1  UNL1        0.0000
     55 H           3.5806   -3.0753    3.9666 H       1  UNL1        0.0000
     56 H           0.3904   -4.6893    4.8807 H       1  UNL1        0.0000
     57 H           0.8692   -4.0563    6.4774 H       1  UNL1        0.0000
     58 H          -0.7361   -2.1507    6.1351 H       1  UNL1        0.0000
     59 H          -1.5676   -3.7261    6.1388 H       1  UNL1        0.0000
     60 H          -3.1022   -1.5688    3.3691 H       1  UNL1        0.0000
     61 H          -2.2573   -0.8558    4.7877 H       1  UNL1        0.0000
     62 H          -3.3922   -2.2392    5.0117 H       1  UNL1        0.0000
     63 H          -2.4609   -3.8493    2.5089 H       1  UNL1        0.0000
     64 H          -1.1885   -4.8227    3.3072 H       1  UNL1        0.0000
     65 H          -2.7663   -4.5558    4.1338 H       1  UNL1        0.0000
     66 H           4.1924   -0.5585    1.5844 H       1  UNL1        0.0000
     67 H           5.4889    0.5632   -0.2234 H       1  UNL1        0.0000
     68 EU         -0.5592   -0.1898   -0.8909 Eu      1  UNL1        0.0000
@<TRIPOS>BOND
     1     1     2    2
     2     2     3   am
     3     3     4    1
     4     3     5    1
     5     5     6    1
     6     6     7    1
     7     2     8    1
     8     8     9   ar
     9     9    10   ar
    10     8    11   ar
    11    11    12   ar
    12    12    13   ar
    13    10    13   ar
    14    13    14   ar
    15    14    15   ar
    16    15    16   ar
    17    16    17   ar
    18    12    17   ar
    19    17    18   ar
    20    18    19   ar
    21    19    20    1
    22    20    21   ar
    23    21    22   ar
    24    22    23    1
    25    23    24    1
    26    23    25    1
    27    23    26    1
    28    26    27    1
    29    27    28    1
    30    28    29    1
    31    28    30    1
    32    22    31   ar
    33    28    31    1
    34    31    32   ar
    35    32    33   ar
    36    20    33   ar
    37    19    34   ar
    38    34    35   ar
    39    16    35   ar
    40     4    36    1
    41     4    37    1
    42     4    38    1
    43     5    39    1
    44     5    40    1
    45     6    41    1
    46     6    42    1
    47     7    43    1
    48     7    44    1
    49     7    45    1
    50     9    46    1
    51    10    47    1
    52    14    48    1
    53    15    49    1
    54    24    50    1
    55    24    51    1
    56    24    52    1
    57    25    53    1
    58    25    54    1
    59    25    55    1
    60    26    56    1
    61    26    57    1
    62    27    58    1
    63    27    59    1
    64    29    60    1
    65    29    61    1
    66    29    62    1
    67    30    63    1
    68    30    64    1
    69    30    65    1
    70    34    66    1
    71    35    67    1
    72    68     1    1
    73    68    33    1
    74    68    18    1
    75    68    11    1
@<TRIPOS>MOLECULE
*****
 68 75 0 0 0
SMALL
GASTEIGER

@<TRIPOS>ATOM
      1 O          -2.1801    0.2504   -2.3852 O.2     1  UNL1        0.0000
      2 C          -1.9555    0.7996   -3.4746 C.2     1  UNL1        0.0000
      3 N          -3.0366    0.9856   -4.3216 N.am    1  UNL1        0.0000
      4 C          -4.3631    0.6164   -3.8269 C.3     1  UNL1        0.0000
      5 C          -2.9487    1.5029   -5.6825 C.3     1  UNL1        0.0000
      6 C          -2.3022    0.4578   -6.6124 C.3     1  UNL1        0.0000
      7 C          -2.2058    0.9729   -8.0446 C.3     1  UNL1        0.0000
      8 C          -0.5010    1.1908   -3.7317 C.ar    1  UNL1        0.0000
      9 C           0.0950    1.8579   -4.8393 C.ar    1  UNL1        0.0000
     10 C           1.4849    2.1153   -4.8483 C.ar    1  UNL1        0.0000
     11 N           0.3297    0.8535   -2.7239 N.ar    1  UNL1        0.0000
     12 C           1.6604    1.0848   -2.6999 C.ar    1  UNL1        0.0000
     13 C           2.2876    1.7234   -3.7657 C.ar    1  UNL1        0.0000
     14 C           3.6797    1.9449   -3.7015 C.ar    1  UNL1        0.0000
     15 C           4.4164    1.5217   -2.5700 C.ar    1  UNL1        0.0000
     16 C           3.7621    0.8782   -1.4997 C.ar    1  UNL1        0.0000
     17 C           2.3825    0.6732   -1.5895 C.ar    1  UNL1        0.0000
     18 N           1.7157    0.0658   -0.5908 N.ar    1  UNL1        0.0000
     19 C           2.2988   -0.3827    0.5368 C.ar    1  UNL1        0.0000
     20 C           1.3962   -1.0258    1.5104 C.ar    1  UNL1        0.0000
     21 N           1.8424   -1.5595    2.6725 N.ar    1  UNL1        0.0000
     22 C           0.9860   -2.1720    3.5375 C.ar    1  UNL1        0.0000
     23 C           1.5539   -2.8189    4.7959 C.3     1  UNL1        0.0000
     24 C           2.0132   -1.6997    5.7552 C.3     1  UNL1        0.0000
     25 C           2.7792   -3.6877    4.4342 C.3     1  UNL1        0.0000
     26 C           0.5095   -3.7550    5.4695 C.3     1  UNL1        0.0000
     27 C          -0.8595   -3.0918    5.5611 C.3     1  UNL1        0.0000
     28 C          -1.4479   -2.7978    4.1516 C.3     1  UNL1        0.0000
     29 C          -2.6181   -1.8078    4.3402 C.3     1  UNL1        0.0000
     30 C          -1.9934   -4.0829    3.4910 C.3     1  UNL1        0.0000
     31 C          -0.3983   -2.1956    3.2246 C.ar    1  UNL1        0.0000
     32 N          -0.7990   -1.6643    2.0357 N.ar    1  UNL1        0.0000
     33 N           0.0713   -1.1017    1.2019 N.ar    1  UNL1        0.0000
     34 C           3.6872   -0.2112    0.6922 C.ar    1  UNL1        0.0000
     35 C           4.4206    0.4260   -0.3362 C.ar    1  UNL1        0.0000
     36 H          -4.6095    1.2177   -2.9254 H       1  UNL1        0.0000
     37 H          -5.1674    0.7868   -4.5728 H       1  UNL1        0.0000
     38 H          -4.3825   -0.4631   -3.5638 H       1  UNL1        0.0000
     39 H          -3.9615    1.6892   -6.1015 H       1  UNL1        0.0000
     40 H          -2.4747    2.5013   -5.6828 H       1  UNL1        0.0000
     41 H          -1.2908    0.1688   -6.2688 H       1  UNL1        0.0000
     42 H          -2.9252   -0.4633   -6.6029 H       1  UNL1        0.0000
     43 H          -3.2158    1.2184   -8.4364 H       1  UNL1        0.0000
     44 H          -1.7553    0.1900   -8.6907 H       1  UNL1        0.0000
     45 H          -1.5664    1.8799   -8.0843 H       1  UNL1        0.0000
     46 H          -0.4383    2.1941   -5.7012 H       1  UNL1        0.0000
     47 H           1.9276    2.6200   -5.6985 H       1  UNL1        0.0000
     48 H           4.1928    2.4399   -4.5167 H       1  UNL1        0.0000
     49 H           5.4844    1.6970   -2.5325 H       1  UNL1        0.0000
     50 H           2.7997   -1.0747    5.2792 H       1  UNL1        0.0000
     51 H           2.4355   -2.1337    6.6871 H       1  UNL1        0.0000
     52 H           1.1767   -1.0260    6.0305 H       1  UNL1        0.0000
     53 H           2.4947   -4.4869    3.7155 H       1  UNL1        0.0000
     54 H           3.2026   -4.1672    5.3432 H       1  UNL1        0.0000
     55 H           3.5806   -3.0755    3.9667 H       1  UNL1        0.0000
     56 H           0.3905   -4.6892    4.8814 H       1  UNL1        0.0000
     57 H           0.8693   -4.0556    6.4779 H       1  UNL1        0.0000
     58 H          -0.7361   -2.1502    6.1349 H       1  UNL1        0.0000
     59 H          -1.5676   -3.7256    6.1392 H       1  UNL1        0.0000
     60 H          -3.1023   -1.5694    3.3687 H       1  UNL1        0.0000
     61 H          -2.2574   -0.8558    4.7871 H       1  UNL1        0.0000
     62 H          -3.3922   -2.2393    5.0115 H       1  UNL1        0.0000
     63 H          -2.4606   -3.8501    2.5093 H       1  UNL1        0.0000
     64 H          -1.1882   -4.8231    3.3079 H       1  UNL1        0.0000
     65 H          -2.7660   -4.5561    4.1343 H       1  UNL1        0.0000
     66 H           4.1924   -0.5588    1.5842 H       1  UNL1        0.0000
     67 H           5.4889    0.5630   -0.2235 H       1  UNL1        0.0000
     68 EU         -0.5591   -0.1903   -0.8912 Eu      1  UNL1        0.0000
@<TRIPOS>BOND
     1     1     2    2
     2     2     3   am
     3     3     4    1
     4     3     5    1
     5     5     6    1
     6     6     7    1
     7     2     8    1
     8     8     9   ar
     9     9    10   ar
    10     8    11   ar
    11    11    12   ar
    12    12    13   ar
    13    10    13   ar
    14    13    14   ar
    15    14    15   ar
    16    15    16   ar
    17    16    17   ar
    18    12    17   ar
    19    17    18   ar
    20    18    19   ar
    21    19    20    1
    22    20    21   ar
    23    21    22   ar
    24    22    23    1
    25    23    24    1
    26    23    25    1
    27    23    26    1
    28    26    27    1
    29    27    28    1
    30    28    29    1
    31    28    30    1
    32    22    31   ar
    33    28    31    1
    34    31    32   ar
    35    32    33   ar
    36    20    33   ar
    37    19    34   ar
    38    34    35   ar
    39    16    35   ar
    40     4    36    1
    41     4    37    1
    42     4    38    1
    43     5    39    1
    44     5    40    1
    45     6    41    1
    46     6    42    1
    47     7    43    1
    48     7    44    1
    49     7    45    1
    50     9    46    1
    51    10    47    1
    52    14    48    1
    53    15    49    1
    54    24    50    1
    55    24    51    1
    56    24    52    1
    57    25    53    1
    58    25    54    1
    59    25    55    1
    60    26    56    1
    61    26    57    1
    62    27    58    1
    63    27    59    1
    64    29    60    1
    65    29    61    1
    66    29    62    1
    67    30    63    1
    68    30    64    1
    69    30    65    1
    70    34    66    1
    71    35    67    1
    72    68     1    1
    73    68    33    1
    74    68    18    1
    75    68    11    1
@<TRIPOS>MOLECULE
*****
 68 75 0 0 0
SMALL
GASTEIGER

@<TRIPOS>ATOM
      1 O          -2.1801    0.2502   -2.3852 O.2     1  UNL1        0.0000
      2 C          -1.9556    0.7993   -3.4747 C.2     1  UNL1        0.0000
      3 N          -3.0366    0.9855   -4.3217 N.am    1  UNL1        0.0000
      4 C          -4.3630    0.6162   -3.8270 C.3     1  UNL1        0.0000
      5 C          -2.9487    1.5030   -5.6825 C.3     1  UNL1        0.0000
      6 C          -2.3023    0.4581   -6.6125 C.3     1  UNL1        0.0000
      7 C          -2.2059    0.9734   -8.0447 C.3     1  UNL1        0.0000
      8 C          -0.5009    1.1907   -3.7318 C.ar    1  UNL1        0.0000
      9 C           0.0950    1.8578   -4.8393 C.ar    1  UNL1        0.0000
     10 C           1.4849    2.1152   -4.8482 C.ar    1  UNL1        0.0000
     11 N           0.3297    0.8534   -2.7240 N.ar    1  UNL1        0.0000
     12 C           1.6604    1.0847   -2.6999 C.ar    1  UNL1        0.0000
     13 C           2.2875    1.7234   -3.7656 C.ar    1  UNL1        0.0000
     14 C           3.6796    1.9449   -3.7015 C.ar    1  UNL1        0.0000
     15 C           4.4164    1.5217   -2.5700 C.ar    1  UNL1        0.0000
     16 C           3.7621    0.8780   -1.4997 C.ar    1  UNL1        0.0000
     17 C           2.3825    0.6730   -1.5896 C.ar    1  UNL1        0.0000
     18 N           1.7157    0.0656   -0.5909 N.ar    1  UNL1        0.0000
     19 C           2.2988   -0.3828    0.5367 C.ar    1  UNL1        0.0000
     20 C           1.3959   -1.0262    1.5104 C.ar    1  UNL1        0.0000
     21 N           1.8424   -1.5594    2.6723 N.ar    1  UNL1        0.0000
     22 C           0.9859   -2.1721    3.5376 C.ar    1  UNL1        0.0000
     23 C           1.5540   -2.8189    4.7956 C.3     1  UNL1        0.0000
     24 C           2.0133   -1.6995    5.7551 C.3     1  UNL1        0.0000
     25 C           2.7793   -3.6877    4.4343 C.3     1  UNL1        0.0000
     26 C           0.5095   -3.7548    5.4697 C.3     1  UNL1        0.0000
     27 C          -0.8596   -3.0917    5.5612 C.3     1  UNL1        0.0000
     28 C          -1.4478   -2.7979    4.1516 C.3     1  UNL1        0.0000
     29 C          -2.6181   -1.8080    4.3400 C.3     1  UNL1        0.0000
     30 C          -1.9933   -4.0831    3.4912 C.3     1  UNL1        0.0000
     31 C          -0.3980   -2.1956    3.2244 C.ar    1  UNL1        0.0000
     32 N          -0.7990   -1.6645    2.0358 N.ar    1  UNL1        0.0000
     33 N           0.0715   -1.1016    1.2017 N.ar    1  UNL1        0.0000
     34 C           3.6873   -0.2114    0.6921 C.ar    1  UNL1        0.0000
     35 C           4.4207    0.4259   -0.3362 C.ar    1  UNL1        0.0000
     36 H          -4.6096    1.2174   -2.9255 H       1  UNL1        0.0000
     37 H          -5.1674    0.7866   -4.5729 H       1  UNL1        0.0000
     38 H          -4.3825   -0.4633   -3.5641 H       1  UNL1        0.0000
     39 H          -3.9615    1.6894   -6.1014 H       1  UNL1        0.0000
     40 H          -2.4747    2.5014   -5.6827 H       1  UNL1        0.0000
     41 H          -1.2909    0.1690   -6.2691 H       1  UNL1        0.0000
     42 H          -2.9252   -0.4630   -6.6032 H       1  UNL1        0.0000
     43 H          -3.2158    1.2191   -8.4365 H       1  UNL1        0.0000
     44 H          -1.7553    0.1906   -8.6909 H       1  UNL1        0.0000
     45 H          -1.5663    1.8805   -8.0842 H       1  UNL1        0.0000
     46 H          -0.4383    2.1941   -5.7012 H       1  UNL1        0.0000
     47 H           1.9275    2.6200   -5.6985 H       1  UNL1        0.0000
     48 H           4.1928    2.4399   -4.5167 H       1  UNL1        0.0000
     49 H           5.4844    1.6969   -2.5325 H       1  UNL1        0.0000
     50 H           2.7998   -1.0746    5.2789 H       1  UNL1        0.0000
     51 H           2.4355   -2.1333    6.6871 H       1  UNL1        0.0000
     52 H           1.1767   -1.0257    6.0303 H       1  UNL1        0.0000
     53 H           2.4947   -4.4870    3.7158 H       1  UNL1        0.0000
     54 H           3.2026   -4.1671    5.3436 H       1  UNL1        0.0000
     55 H           3.5806   -3.0756    3.9669 H       1  UNL1        0.0000
     56 H           0.3905   -4.6891    4.8819 H       1  UNL1        0.0000
     57 H           0.8693   -4.0552    6.4783 H       1  UNL1        0.0000
     58 H          -0.7361   -2.1498    6.1348 H       1  UNL1        0.0000
     59 H          -1.5676   -3.7253    6.1394 H       1  UNL1        0.0000
     60 H          -3.1023   -1.5697    3.3685 H       1  UNL1        0.0000
     61 H          -2.2575   -0.8558    4.7867 H       1  UNL1        0.0000
     62 H          -3.3922   -2.2393    5.0113 H       1  UNL1        0.0000
     63 H          -2.4605   -3.8505    2.5094 H       1  UNL1        0.0000
     64 H          -1.1880   -4.8233    3.3083 H       1  UNL1        0.0000
     65 H          -2.7659   -4.5562    4.1346 H       1  UNL1        0.0000
     66 H           4.1925   -0.5590    1.5841 H       1  UNL1        0.0000
     67 H           5.4889    0.5629   -0.2235 H       1  UNL1        0.0000
     68 EU         -0.5591   -0.1906   -0.8911 Eu      1  UNL1        0.0000
@<TRIPOS>BOND
     1     1     2    2
     2     2     3   am
     3     3     4    1
     4     3     5    1
     5     5     6    1
     6     6     7    1
     7     2     8    1
     8     8     9   ar
     9     9    10   ar
    10     8    11   ar
    11    11    12   ar
    12    12    13   ar
    13    10    13   ar
    14    13    14   ar
    15    14    15   ar
    16    15    16   ar
    17    16    17   ar
    18    12    17   ar
    19    17    18   ar
    20    18    19   ar
    21    19    20    1
    22    20    21   ar
    23    21    22   ar
    24    22    23    1
    25    23    24    1
    26    23    25    1
    27    23    26    1
    28    26    27    1
    29    27    28    1
    30    28    29    1
    31    28    30    1
    32    22    31   ar
    33    28    31    1
    34    31    32   ar
    35    32    33   ar
    36    20    33   ar
    37    19    34   ar
    38    34    35   ar
    39    16    35   ar
    40     4    36    1
    41     4    37    1
    42     4    38    1
    43     5    39    1
    44     5    40    1
    45     6    41    1
    46     6    42    1
    47     7    43    1
    48     7    44    1
    49     7    45    1
    50     9    46    1
    51    10    47    1
    52    14    48    1
    53    15    49    1
    54    24    50    1
    55    24    51    1
    56    24    52    1
    57    25    53    1
    58    25    54    1
    59    25    55    1
    60    26    56    1
    61    26    57    1
    62    27    58    1
    63    27    59    1
    64    29    60    1
    65    29    61    1
    66    29    62    1
    67    30    63    1
    68    30    64    1
    69    30    65    1
    70    34    66    1
    71    35    67    1
    72    68     1    1
    73    68    33    1
    74    68    18    1
    75    68    11    1
@<TRIPOS>MOLECULE
*****
 68 75 0 0 0
SMALL
GASTEIGER

@<TRIPOS>ATOM
      1 O          -2.1801    0.2498   -2.3854 O.2     1  UNL1        0.0000
      2 C          -1.9555    0.7991   -3.4748 C.2     1  UNL1        0.0000
      3 N          -3.0366    0.9853   -4.3217 N.am    1  UNL1        0.0000
      4 C          -4.3630    0.6158   -3.8272 C.3     1  UNL1        0.0000
      5 C          -2.9487    1.5031   -5.6825 C.3     1  UNL1        0.0000
      6 C          -2.3023    0.4585   -6.6128 C.3     1  UNL1        0.0000
      7 C          -2.2059    0.9743   -8.0448 C.3     1  UNL1        0.0000
      8 C          -0.5010    1.1905   -3.7319 C.ar    1  UNL1        0.0000
      9 C           0.0949    1.8577   -4.8393 C.ar    1  UNL1        0.0000
     10 C           1.4849    2.1152   -4.8482 C.ar    1  UNL1        0.0000
     11 N           0.3297    0.8531   -2.7241 N.ar    1  UNL1        0.0000
     12 C           1.6604    1.0845   -2.7000 C.ar    1  UNL1        0.0000
     13 C           2.2875    1.7232   -3.7656 C.ar    1  UNL1        0.0000
     14 C           3.6796    1.9448   -3.7015 C.ar    1  UNL1        0.0000
     15 C           4.4164    1.5216   -2.5700 C.ar    1  UNL1        0.0000
     16 C           3.7621    0.8779   -1.4998 C.ar    1  UNL1        0.0000
     17 C           2.3825    0.6727   -1.5896 C.ar    1  UNL1        0.0000
     18 N           1.7157    0.0654   -0.5910 N.ar    1  UNL1        0.0000
     19 C           2.2987   -0.3834    0.5365 C.ar    1  UNL1        0.0000
     20 C           1.3957   -1.0264    1.5106 C.ar    1  UNL1        0.0000
     21 N           1.8421   -1.5599    2.6723 N.ar    1  UNL1        0.0000
     22 C           0.9860   -2.1721    3.5375 C.ar    1  UNL1        0.0000
     23 C           1.5540   -2.8187    4.7960 C.3     1  UNL1        0.0000
     24 C           2.0134   -1.6992    5.7548 C.3     1  UNL1        0.0000
     25 C           2.7792   -3.6877    4.4346 C.3     1  UNL1        0.0000
     26 C           0.5096   -3.7545    5.4701 C.3     1  UNL1        0.0000
     27 C          -0.8596   -3.0913    5.5613 C.3     1  UNL1        0.0000
     28 C          -1.4478   -2.7981    4.1517 C.3     1  UNL1        0.0000
     29 C          -2.6182   -1.8081    4.3397 C.3     1  UNL1        0.0000
     30 C          -1.9931   -4.0835    3.4916 C.3     1  UNL1        0.0000
     31 C          -0.3981   -2.1959    3.2243 C.ar    1  UNL1        0.0000
     32 N          -0.7989   -1.6646    2.0355 N.ar    1  UNL1        0.0000
     33 N           0.0715   -1.1022    1.2015 N.ar    1  UNL1        0.0000
     34 C           3.6873   -0.2116    0.6921 C.ar    1  UNL1        0.0000
     35 C           4.4207    0.4256   -0.3363 C.ar    1  UNL1        0.0000
     36 H          -4.6096    1.2168   -2.9255 H       1  UNL1        0.0000
     37 H          -5.1673    0.7864   -4.5730 H       1  UNL1        0.0000
     38 H          -4.3824   -0.4637   -3.5645 H       1  UNL1        0.0000
     39 H          -3.9615    1.6897   -6.1013 H       1  UNL1        0.0000
     40 H          -2.4747    2.5015   -5.6824 H       1  UNL1        0.0000
     41 H          -1.2910    0.1692   -6.2694 H       1  UNL1        0.0000
     42 H          -2.9253   -0.4625   -6.6038 H       1  UNL1        0.0000
     43 H          -3.2158    1.2202   -8.4365 H       1  UNL1        0.0000
     44 H          -1.7554    0.1917   -8.6913 H       1  UNL1        0.0000
     45 H          -1.5663    1.8814   -8.0840 H       1  UNL1        0.0000
     46 H          -0.4383    2.1940   -5.7012 H       1  UNL1        0.0000
     47 H           1.9275    2.6200   -5.6985 H       1  UNL1        0.0000
     48 H           4.1927    2.4399   -4.5166 H       1  UNL1        0.0000
     49 H           5.4844    1.6968   -2.5325 H       1  UNL1        0.0000
     50 H           2.7998   -1.0744    5.2786 H       1  UNL1        0.0000
     51 H           2.4356   -2.1327    6.6870 H       1  UNL1        0.0000
     52 H           1.1768   -1.0253    6.0299 H       1  UNL1        0.0000
     53 H           2.4947   -4.4872    3.7164 H       1  UNL1        0.0000
     54 H           3.2027   -4.1668    5.3440 H       1  UNL1        0.0000
     55 H           3.5807   -3.0757    3.9670 H       1  UNL1        0.0000
     56 H           0.3906   -4.6890    4.8826 H       1  UNL1        0.0000
     57 H           0.8693   -4.0546    6.4787 H       1  UNL1        0.0000
     58 H          -0.7361   -2.1493    6.1346 H       1  UNL1        0.0000
     59 H          -1.5675   -3.7248    6.1397 H       1  UNL1        0.0000
     60 H          -3.1023   -1.5702    3.3681 H       1  UNL1        0.0000
     61 H          -2.2577   -0.8559    4.7862 H       1  UNL1        0.0000
     62 H          -3.3922   -2.2394    5.0112 H       1  UNL1        0.0000
     63 H          -2.4603   -3.8512    2.5097 H       1  UNL1        0.0000
     64 H          -1.1878   -4.8237    3.3089 H       1  UNL1        0.0000
     65 H          -2.7657   -4.5565    4.1351 H       1  UNL1        0.0000
     66 H           4.1925   -0.5594    1.5840 H       1  UNL1        0.0000
     67 H           5.4889    0.5627   -0.2236 H       1  UNL1        0.0000
     68 EU         -0.5592   -0.1908   -0.8914 Eu      1  UNL1        0.0000
@<TRIPOS>BOND
     1     1     2    2
     2     2     3   am
     3     3     4    1
     4     3     5    1
     5     5     6    1
     6     6     7    1
     7     2     8    1
     8     8     9   ar
     9     9    10   ar
    10     8    11   ar
    11    11    12   ar
    12    12    13   ar
    13    10    13   ar
    14    13    14   ar
    15    14    15   ar
    16    15    16   ar
    17    16    17   ar
    18    12    17   ar
    19    17    18   ar
    20    18    19   ar
    21    19    20    1
    22    20    21   ar
    23    21    22   ar
    24    22    23    1
    25    23    24    1
    26    23    25    1
    27    23    26    1
    28    26    27    1
    29    27    28    1
    30    28    29    1
    31    28    30    1
    32    22    31   ar
    33    28    31    1
    34    31    32   ar
    35    32    33   ar
    36    20    33   ar
    37    19    34   ar
    38    34    35   ar
    39    16    35   ar
    40     4    36    1
    41     4    37    1
    42     4    38    1
    43     5    39    1
    44     5    40    1
    45     6    41    1
    46     6    42    1
    47     7    43    1
    48     7    44    1
    49     7    45    1
    50     9    46    1
    51    10    47    1
    52    14    48    1
    53    15    49    1
    54    24    50    1
    55    24    51    1
    56    24    52    1
    57    25    53    1
    58    25    54    1
    59    25    55    1
    60    26    56    1
    61    26    57    1
    62    27    58    1
    63    27    59    1
    64    29    60    1
    65    29    61    1
    66    29    62    1
    67    30    63    1
    68    30    64    1
    69    30    65    1
    70    34    66    1
    71    35    67    1
    72    68     1    1
    73    68    33    1
    74    68    18    1
    75    68    11    1
@<TRIPOS>MOLECULE
*****
 68 75 0 0 0
SMALL
GASTEIGER

@<TRIPOS>ATOM
      1 O          -2.1801    0.2496   -2.3855 O.2     1  UNL1        0.0000
      2 C          -1.9555    0.7990   -3.4749 C.2     1  UNL1        0.0000
      3 N          -3.0366    0.9852   -4.3218 N.am    1  UNL1        0.0000
      4 C          -4.3630    0.6157   -3.8273 C.3     1  UNL1        0.0000
      5 C          -2.9487    1.5032   -5.6824 C.3     1  UNL1        0.0000
      6 C          -2.3024    0.4587   -6.6130 C.3     1  UNL1        0.0000
      7 C          -2.2059    0.9748   -8.0449 C.3     1  UNL1        0.0000
      8 C          -0.5010    1.1904   -3.7320 C.ar    1  UNL1        0.0000
      9 C           0.0949    1.8577   -4.8393 C.ar    1  UNL1        0.0000
     10 C           1.4849    2.1151   -4.8482 C.ar    1  UNL1        0.0000
     11 N           0.3297    0.8530   -2.7241 N.ar    1  UNL1        0.0000
     12 C           1.6604    1.0845   -2.7000 C.ar    1  UNL1        0.0000
     13 C           2.2875    1.7232   -3.7657 C.ar    1  UNL1        0.0000
     14 C           3.6796    1.9448   -3.7014 C.ar    1  UNL1        0.0000
     15 C           4.4164    1.5215   -2.5700 C.ar    1  UNL1        0.0000
     16 C           3.7620    0.8778   -1.4998 C.ar    1  UNL1        0.0000
     17 C           2.3825    0.6726   -1.5896 C.ar    1  UNL1        0.0000
     18 N           1.7157    0.0652   -0.5911 N.ar    1  UNL1        0.0000
     19 C           2.2987   -0.3834    0.5367 C.ar    1  UNL1        0.0000
     20 C           1.3959   -1.0266    1.5102 C.ar    1  UNL1        0.0000
     21 N           1.8422   -1.5599    2.6724 N.ar    1  UNL1        0.0000
     22 C           0.9859   -2.1723    3.5374 C.ar    1  UNL1        0.0000
     23 C           1.5540   -2.8187    4.7960 C.3     1  UNL1        0.0000
     24 C           2.0134   -1.6990    5.7548 C.3     1  UNL1        0.0000
     25 C           2.7792   -3.6877    4.4348 C.3     1  UNL1        0.0000
     26 C           0.5096   -3.7544    5.4703 C.3     1  UNL1        0.0000
     27 C          -0.8595   -3.0911    5.5614 C.3     1  UNL1        0.0000
     28 C          -1.4477   -2.7980    4.1517 C.3     1  UNL1        0.0000
     29 C          -2.6182   -1.8082    4.3396 C.3     1  UNL1        0.0000
     30 C          -1.9930   -4.0836    3.4918 C.3     1  UNL1        0.0000
     31 C          -0.3985   -2.1960    3.2243 C.ar    1  UNL1        0.0000
     32 N          -0.7988   -1.6648    2.0353 N.ar    1  UNL1        0.0000
     33 N           0.0713   -1.1023    1.2017 N.ar    1  UNL1        0.0000
     34 C           3.6872   -0.2119    0.6919 C.ar    1  UNL1        0.0000
     35 C           4.4206    0.4255   -0.3363 C.ar    1  UNL1        0.0000
     36 H          -4.6096    1.2166   -2.9256 H       1  UNL1        0.0000
     37 H          -5.1673    0.7863   -4.5731 H       1  UNL1        0.0000
     38 H          -4.3824   -0.4639   -3.5647 H       1  UNL1        0.0000
     39 H          -3.9615    1.6899   -6.1013 H       1  UNL1        0.0000
     40 H          -2.4747    2.5016   -5.6822 H       1  UNL1        0.0000
     41 H          -1.2910    0.1694   -6.2696 H       1  UNL1        0.0000
     42 H          -2.9254   -0.4623   -6.6042 H       1  UNL1        0.0000
     43 H          -3.2158    1.2207   -8.4365 H       1  UNL1        0.0000
     44 H          -1.7555    0.1923   -8.6915 H       1  UNL1        0.0000
     45 H          -1.5663    1.8818   -8.0839 H       1  UNL1        0.0000
     46 H          -0.4383    2.1940   -5.7012 H       1  UNL1        0.0000
     47 H           1.9275    2.6200   -5.6984 H       1  UNL1        0.0000
     48 H           4.1927    2.4399   -4.5166 H       1  UNL1        0.0000
     49 H           5.4844    1.6968   -2.5325 H       1  UNL1        0.0000
     50 H           2.7999   -1.0742    5.2784 H       1  UNL1        0.0000
     51 H           2.4357   -2.1324    6.6869 H       1  UNL1        0.0000
     52 H           1.1769   -1.0251    6.0297 H       1  UNL1        0.0000
     53 H           2.4947   -4.4873    3.7167 H       1  UNL1        0.0000
     54 H           3.2027   -4.1667    5.3442 H       1  UNL1        0.0000
     55 H           3.5806   -3.0758    3.9671 H       1  UNL1        0.0000
     56 H           0.3907   -4.6889    4.8830 H       1  UNL1        0.0000
     57 H           0.8693   -4.0542    6.4790 H       1  UNL1        0.0000
     58 H          -0.7361   -2.1491    6.1346 H       1  UNL1        0.0000
     59 H          -1.5675   -3.7246    6.1399 H       1  UNL1        0.0000
     60 H          -3.1024   -1.5705    3.3679 H       1  UNL1        0.0000
     61 H          -2.2577   -0.8559    4.7859 H       1  UNL1        0.0000
     62 H          -3.3923   -2.2394    5.0111 H       1  UNL1        0.0000
     63 H          -2.4602   -3.8516    2.5099 H       1  UNL1        0.0000
     64 H          -1.1876   -4.8239    3.3092 H       1  UNL1        0.0000
     65 H          -2.7656   -4.5566    4.1354 H       1  UNL1        0.0000
     66 H           4.1925   -0.5595    1.5839 H       1  UNL1        0.0000
     67 H           5.4889    0.5626   -0.2237 H       1  UNL1        0.0000
     68 EU         -0.5591   -0.1910   -0.8914 Eu      1  UNL1        0.0000
@<TRIPOS>BOND
     1     1     2    2
     2     2     3   am
     3     3     4    1
     4     3     5    1
     5     5     6    1
     6     6     7    1
     7     2     8    1
     8     8     9   ar
     9     9    10   ar
    10     8    11   ar
    11    11    12   ar
    12    12    13   ar
    13    10    13   ar
    14    13    14   ar
    15    14    15   ar
    16    15    16   ar
    17    16    17   ar
    18    12    17   ar
    19    17    18   ar
    20    18    19   ar
    21    19    20    1
    22    20    21   ar
    23    21    22   ar
    24    22    23    1
    25    23    24    1
    26    23    25    1
    27    23    26    1
    28    26    27    1
    29    27    28    1
    30    28    29    1
    31    28    30    1
    32    22    31   ar
    33    28    31    1
    34    31    32   ar
    35    32    33   ar
    36    20    33   ar
    37    19    34   ar
    38    34    35   ar
    39    16    35   ar
    40     4    36    1
    41     4    37    1
    42     4    38    1
    43     5    39    1
    44     5    40    1
    45     6    41    1
    46     6    42    1
    47     7    43    1
    48     7    44    1
    49     7    45    1
    50     9    46    1
    51    10    47    1
    52    14    48    1
    53    15    49    1
    54    24    50    1
    55    24    51    1
    56    24    52    1
    57    25    53    1
    58    25    54    1
    59    25    55    1
    60    26    56    1
    61    26    57    1
    62    27    58    1
    63    27    59    1
    64    29    60    1
    65    29    61    1
    66    29    62    1
    67    30    63    1
    68    30    64    1
    69    30    65    1
    70    34    66    1
    71    35    67    1
    72    68     1    1
    73    68    33    1
    74    68    18    1
    75    68    11    1
@<TRIPOS>MOLECULE
*****
 68 75 0 0 0
SMALL
GASTEIGER

@<TRIPOS>ATOM
      1 O          -2.1800    0.2482   -2.3860 O.2     1  UNL1        0.0000
      2 C          -1.9554    0.7981   -3.4755 C.2     1  UNL1        0.0000
      3 N          -3.0366    0.9846   -4.3223 N.am    1  UNL1        0.0000
      4 C          -4.3629    0.6145   -3.8280 C.3     1  UNL1        0.0000
      5 C          -2.9488    1.5038   -5.6824 C.3     1  UNL1        0.0000
      6 C          -2.3026    0.4602   -6.6141 C.3     1  UNL1        0.0000
      7 C          -2.2061    0.9780   -8.0454 C.3     1  UNL1        0.0000
      8 C          -0.5009    1.1895   -3.7322 C.ar    1  UNL1        0.0000
      9 C           0.0950    1.8573   -4.8395 C.ar    1  UNL1        0.0000
     10 C           1.4848    2.1148   -4.8483 C.ar    1  UNL1        0.0000
     11 N           0.3298    0.8519   -2.7246 N.ar    1  UNL1        0.0000
     12 C           1.6605    1.0833   -2.7005 C.ar    1  UNL1        0.0000
     13 C           2.2876    1.7225   -3.7658 C.ar    1  UNL1        0.0000
     14 C           3.6796    1.9443   -3.7015 C.ar    1  UNL1        0.0000
     15 C           4.4163    1.5207   -2.5701 C.ar    1  UNL1        0.0000
     16 C           3.7622    0.8766   -1.5001 C.ar    1  UNL1        0.0000
     17 C           2.3824    0.6714   -1.5903 C.ar    1  UNL1        0.0000
     18 N           1.7158    0.0637   -0.5916 N.ar    1  UNL1        0.0000
     19 C           2.2987   -0.3849    0.5360 C.ar    1  UNL1        0.0000
     20 C           1.3958   -1.0281    1.5098 C.ar    1  UNL1        0.0000
     21 N           1.8422   -1.5609    2.6720 N.ar    1  UNL1        0.0000
     22 C           0.9860   -2.1730    3.5374 C.ar    1  UNL1        0.0000
     23 C           1.5541   -2.8183    4.7964 C.3     1  UNL1        0.0000
     24 C           2.0136   -1.6977    5.7541 C.3     1  UNL1        0.0000
     25 C           2.7793   -3.6877    4.4360 C.3     1  UNL1        0.0000
     26 C           0.5097   -3.7533    5.4717 C.3     1  UNL1        0.0000
     27 C          -0.8595   -3.0900    5.5620 C.3     1  UNL1        0.0000
     28 C          -1.4476   -2.7986    4.1519 C.3     1  UNL1        0.0000
     29 C          -2.6184   -1.8089    4.3386 C.3     1  UNL1        0.0000
     30 C          -1.9923   -4.0850    3.4931 C.3     1  UNL1        0.0000
     31 C          -0.3981   -2.1970    3.2242 C.ar    1  UNL1        0.0000
     32 N          -0.7989   -1.6665    2.0352 N.ar    1  UNL1        0.0000
     33 N           0.0713   -1.1040    1.2012 N.ar    1  UNL1        0.0000
     34 C           3.6872   -0.2132    0.6915 C.ar    1  UNL1        0.0000
     35 C           4.4206    0.4243   -0.3367 C.ar    1  UNL1        0.0000
     36 H          -4.6096    1.2146   -2.9258 H       1  UNL1        0.0000
     37 H          -5.1672    0.7855   -4.5737 H       1  UNL1        0.0000
     38 H          -4.3821   -0.4653   -3.5662 H       1  UNL1        0.0000
     39 H          -3.9617    1.6909   -6.1009 H       1  UNL1        0.0000
     40 H          -2.4748    2.5022   -5.6812 H       1  UNL1        0.0000
     41 H          -1.2914    0.1703   -6.2710 H       1  UNL1        0.0000
     42 H          -2.9259   -0.4606   -6.6063 H       1  UNL1        0.0000
     43 H          -3.2159    1.2247   -8.4367 H       1  UNL1        0.0000
     44 H          -1.7557    0.1962   -8.6929 H       1  UNL1        0.0000
     45 H          -1.5663    1.8850   -8.0833 H       1  UNL1        0.0000
     46 H          -0.4383    2.1939   -5.7012 H       1  UNL1        0.0000
     47 H           1.9275    2.6200   -5.6983 H       1  UNL1        0.0000
     48 H           4.1926    2.4397   -4.5165 H       1  UNL1        0.0000
     49 H           5.4843    1.6963   -2.5325 H       1  UNL1        0.0000
     50 H           2.8001   -1.0734    5.2771 H       1  UNL1        0.0000
     51 H           2.4359   -2.1302    6.6866 H       1  UNL1        0.0000
     52 H           1.1771   -1.0235    6.0284 H       1  UNL1        0.0000
     53 H           2.4947   -4.4880    3.7186 H       1  UNL1        0.0000
     54 H           3.2028   -4.1658    5.3458 H       1  UNL1        0.0000
     55 H           3.5807   -3.0763    3.9676 H       1  UNL1        0.0000
     56 H           0.3908   -4.6885    4.8855 H       1  UNL1        0.0000
     57 H           0.8694   -4.0519    6.4808 H       1  UNL1        0.0000
     58 H          -0.7362   -2.1472    6.1340 H       1  UNL1        0.0000
     59 H          -1.5675   -3.7228    6.1412 H       1  UNL1        0.0000
     60 H          -3.1025   -1.5724    3.3666 H       1  UNL1        0.0000
     61 H          -2.2583   -0.8560    4.7839 H       1  UNL1        0.0000
     62 H          -3.3924   -2.2397    5.0104 H       1  UNL1        0.0000
     63 H          -2.4594   -3.8540    2.5110 H       1  UNL1        0.0000
     64 H          -1.1867   -4.8251    3.3114 H       1  UNL1        0.0000
     65 H          -2.7648   -4.5576    4.1371 H       1  UNL1        0.0000
     66 H           4.1924   -0.5608    1.5835 H       1  UNL1        0.0000
     67 H           5.4888    0.5617   -0.2239 H       1  UNL1        0.0000
     68 EU         -0.5591   -0.1925   -0.8921 Eu      1  UNL1        0.0000
@<TRIPOS>BOND
     1     1     2    2
     2     2     3   am
     3     3     4    1
     4     3     5    1
     5     5     6    1
     6     6     7    1
     7     2     8    1
     8     8     9   ar
     9     9    10   ar
    10     8    11   ar
    11    11    12   ar
    12    12    13   ar
    13    10    13   ar
    14    13    14   ar
    15    14    15   ar
    16    15    16   ar
    17    16    17   ar
    18    12    17   ar
    19    17    18   ar
    20    18    19   ar
    21    19    20    1
    22    20    21   ar
    23    21    22   ar
    24    22    23    1
    25    23    24    1
    26    23    25    1
    27    23    26    1
    28    26    27    1
    29    27    28    1
    30    28    29    1
    31    28    30    1
    32    22    31   ar
    33    28    31    1
    34    31    32   ar
    35    32    33   ar
    36    20    33   ar
    37    19    34   ar
    38    34    35   ar
    39    16    35   ar
    40     4    36    1
    41     4    37    1
    42     4    38    1
    43     5    39    1
    44     5    40    1
    45     6    41    1
    46     6    42    1
    47     7    43    1
    48     7    44    1
    49     7    45    1
    50     9    46    1
    51    10    47    1
    52    14    48    1
    53    15    49    1
    54    24    50    1
    55    24    51    1
    56    24    52    1
    57    25    53    1
    58    25    54    1
    59    25    55    1
    60    26    56    1
    61    26    57    1
    62    27    58    1
    63    27    59    1
    64    29    60    1
    65    29    61    1
    66    29    62    1
    67    30    63    1
    68    30    64    1
    69    30    65    1
    70    34    66    1
    71    35    67    1
    72    68     1    1
    73    68    33    1
    74    68    18    1
    75    68    11    1
@<TRIPOS>MOLECULE
*****
 68 75 0 0 0
SMALL
GASTEIGER

@<TRIPOS>ATOM
      1 O          -2.1800    0.2459   -2.3873 O.2     1  UNL1        0.0000
      2 C          -1.9555    0.7961   -3.4763 C.2     1  UNL1        0.0000
      3 N          -3.0366    0.9834   -4.3230 N.am    1  UNL1        0.0000
      4 C          -4.3628    0.6123   -3.8293 C.3     1  UNL1        0.0000
      5 C          -2.9490    1.5049   -5.6823 C.3     1  UNL1        0.0000
      6 C          -2.3032    0.4629   -6.6161 C.3     1  UNL1        0.0000
      7 C          -2.2063    0.9838   -8.0462 C.3     1  UNL1        0.0000
      8 C          -0.5010    1.1880   -3.7330 C.ar    1  UNL1        0.0000
      9 C           0.0948    1.8563   -4.8397 C.ar    1  UNL1        0.0000
     10 C           1.4846    2.1139   -4.8484 C.ar    1  UNL1        0.0000
     11 N           0.3297    0.8502   -2.7252 N.ar    1  UNL1        0.0000
     12 C           1.6601    1.0818   -2.7008 C.ar    1  UNL1        0.0000
     13 C           2.2874    1.7215   -3.7660 C.ar    1  UNL1        0.0000
     14 C           3.6792    1.9434   -3.7016 C.ar    1  UNL1        0.0000
     15 C           4.4160    1.5198   -2.5703 C.ar    1  UNL1        0.0000
     16 C           3.7618    0.8752   -1.5004 C.ar    1  UNL1        0.0000
     17 C           2.3823    0.6698   -1.5907 C.ar    1  UNL1        0.0000
     18 N           1.7154    0.0618   -0.5923 N.ar    1  UNL1        0.0000
     19 C           2.2985   -0.3869    0.5353 C.ar    1  UNL1        0.0000
     20 C           1.3957   -1.0302    1.5090 C.ar    1  UNL1        0.0000
     21 N           1.8422   -1.5622    2.6715 N.ar    1  UNL1        0.0000
     22 C           0.9861   -2.1739    3.5373 C.ar    1  UNL1        0.0000
     23 C           1.5543   -2.8175    4.7972 C.3     1  UNL1        0.0000
     24 C           2.0140   -1.6953    5.7530 C.3     1  UNL1        0.0000
     25 C           2.7793   -3.6875    4.4380 C.3     1  UNL1        0.0000
     26 C           0.5099   -3.7511    5.4743 C.3     1  UNL1        0.0000
     27 C          -0.8593   -3.0879    5.5631 C.3     1  UNL1        0.0000
     28 C          -1.4474   -2.7994    4.1523 C.3     1  UNL1        0.0000
     29 C          -2.6188   -1.8102    4.3370 C.3     1  UNL1        0.0000
     30 C          -1.9911   -4.0873    3.4956 C.3     1  UNL1        0.0000
     31 C          -0.3979   -2.1985    3.2240 C.ar    1  UNL1        0.0000
     32 N          -0.7988   -1.6690    2.0345 N.ar    1  UNL1        0.0000
     33 N           0.0713   -1.1065    1.2003 N.ar    1  UNL1        0.0000
     34 C           3.6869   -0.2150    0.6908 C.ar    1  UNL1        0.0000
     35 C           4.4203    0.4228   -0.3372 C.ar    1  UNL1        0.0000
     36 H          -4.6097    1.2111   -2.9262 H       1  UNL1        0.0000
     37 H          -5.1672    0.7841   -4.5747 H       1  UNL1        0.0000
     38 H          -4.3817   -0.4679   -3.5690 H       1  UNL1        0.0000
     39 H          -3.9619    1.6929   -6.1003 H       1  UNL1        0.0000
     40 H          -2.4748    2.5032   -5.6794 H       1  UNL1        0.0000
     41 H          -1.2921    0.1718   -6.2736 H       1  UNL1        0.0000
     42 H          -2.9267   -0.4577   -6.6102 H       1  UNL1        0.0000
     43 H          -3.2160    1.2318   -8.4371 H       1  UNL1        0.0000
     44 H          -1.7563    0.2033   -8.6955 H       1  UNL1        0.0000
     45 H          -1.5662    1.8906   -8.0821 H       1  UNL1        0.0000
     46 H          -0.4384    2.1933   -5.7013 H       1  UNL1        0.0000
     47 H           1.9273    2.6197   -5.6981 H       1  UNL1        0.0000
     48 H           4.1923    2.4393   -4.5163 H       1  UNL1        0.0000
     49 H           5.4839    1.6955   -2.5325 H       1  UNL1        0.0000
     50 H           2.8005   -1.0719    5.2748 H       1  UNL1        0.0000
     51 H           2.4365   -2.1263    6.6862 H       1  UNL1        0.0000
     52 H           1.1776   -1.0206    6.0263 H       1  UNL1        0.0000
     53 H           2.4945   -4.4891    3.7221 H       1  UNL1        0.0000
     54 H           3.2029   -4.1641    5.3486 H       1  UNL1        0.0000
     55 H           3.5807   -3.0770    3.9684 H       1  UNL1        0.0000
     56 H           0.3912   -4.6876    4.8900 H       1  UNL1        0.0000
     57 H           0.8696   -4.0478    6.4840 H       1  UNL1        0.0000
     58 H          -0.7363   -2.1439    6.1332 H       1  UNL1        0.0000
     59 H          -1.5673   -3.7197    6.1434 H       1  UNL1        0.0000
     60 H          -3.1029   -1.5758    3.3645 H       1  UNL1        0.0000
     61 H          -2.2595   -0.8562    4.7807 H       1  UNL1        0.0000
     62 H          -3.3927   -2.2403    5.0094 H       1  UNL1        0.0000
     63 H          -2.4580   -3.8584    2.5129 H       1  UNL1        0.0000
     64 H          -1.1849   -4.8272    3.3154 H       1  UNL1        0.0000
     65 H          -2.7634   -4.5593    4.1402 H       1  UNL1        0.0000
     66 H           4.1922   -0.5627    1.5828 H       1  UNL1        0.0000
     67 H           5.4885    0.5602   -0.2243 H       1  UNL1        0.0000
     68 EU         -0.5593   -0.1951   -0.8930 Eu      1  UNL1        0.0000
@<TRIPOS>BOND
     1     1     2    2
     2     2     3   am
     3     3     4    1
     4     3     5    1
     5     5     6    1
     6     6     7    1
     7     2     8    1
     8     8     9   ar
     9     9    10   ar
    10     8    11   ar
    11    11    12   ar
    12    12    13   ar
    13    10    13   ar
    14    13    14   ar
    15    14    15   ar
    16    15    16   ar
    17    16    17   ar
    18    12    17   ar
    19    17    18   ar
    20    18    19   ar
    21    19    20    1
    22    20    21   ar
    23    21    22   ar
    24    22    23    1
    25    23    24    1
    26    23    25    1
    27    23    26    1
    28    26    27    1
    29    27    28    1
    30    28    29    1
    31    28    30    1
    32    22    31   ar
    33    28    31    1
    34    31    32   ar
    35    32    33   ar
    36    20    33   ar
    37    19    34   ar
    38    34    35   ar
    39    16    35   ar
    40     4    36    1
    41     4    37    1
    42     4    38    1
    43     5    39    1
    44     5    40    1
    45     6    41    1
    46     6    42    1
    47     7    43    1
    48     7    44    1
    49     7    45    1
    50     9    46    1
    51    10    47    1
    52    14    48    1
    53    15    49    1
    54    24    50    1
    55    24    51    1
    56    24    52    1
    57    25    53    1
    58    25    54    1
    59    25    55    1
    60    26    56    1
    61    26    57    1
    62    27    58    1
    63    27    59    1
    64    29    60    1
    65    29    61    1
    66    29    62    1
    67    30    63    1
    68    30    64    1
    69    30    65    1
    70    34    66    1
    71    35    67    1
    72    68     1    1
    73    68    33    1
    74    68    18    1
    75    68    11    1
@<TRIPOS>MOLECULE
*****
 68 75 0 0 0
SMALL
GASTEIGER

@<TRIPOS>ATOM
      1 O          -2.1800    0.2424   -2.3889 O.2     1  UNL1        0.0000
      2 C          -1.9554    0.7934   -3.4774 C.2     1  UNL1        0.0000
      3 N          -3.0365    0.9818   -4.3239 N.am    1  UNL1        0.0000
      4 C          -4.3627    0.6091   -3.8310 C.3     1  UNL1        0.0000
      5 C          -2.9492    1.5064   -5.6821 C.3     1  UNL1        0.0000
      6 C          -2.3040    0.4669   -6.6189 C.3     1  UNL1        0.0000
      7 C          -2.2068    0.9924   -8.0474 C.3     1  UNL1        0.0000
      8 C          -0.5010    1.1857   -3.7335 C.ar    1  UNL1        0.0000
      9 C           0.0948    1.8548   -4.8398 C.ar    1  UNL1        0.0000
     10 C           1.4847    2.1127   -4.8482 C.ar    1  UNL1        0.0000
     11 N           0.3298    0.8473   -2.7260 N.ar    1  UNL1        0.0000
     12 C           1.6601    1.0792   -2.7012 C.ar    1  UNL1        0.0000
     13 C           2.2872    1.7198   -3.7662 C.ar    1  UNL1        0.0000
     14 C           3.6792    1.9419   -3.7014 C.ar    1  UNL1        0.0000
     15 C           4.4159    1.5177   -2.5705 C.ar    1  UNL1        0.0000
     16 C           3.7617    0.8726   -1.5011 C.ar    1  UNL1        0.0000
     17 C           2.3822    0.6667   -1.5914 C.ar    1  UNL1        0.0000
     18 N           1.7153    0.0584   -0.5934 N.ar    1  UNL1        0.0000
     19 C           2.2984   -0.3904    0.5342 C.ar    1  UNL1        0.0000
     20 C           1.3957   -1.0338    1.5079 C.ar    1  UNL1        0.0000
     21 N           1.8422   -1.5645    2.6709 N.ar    1  UNL1        0.0000
     22 C           0.9862   -2.1754    3.5373 C.ar    1  UNL1        0.0000
     23 C           1.5546   -2.8163    4.7986 C.3     1  UNL1        0.0000
     24 C           2.0145   -1.6918    5.7516 C.3     1  UNL1        0.0000
     25 C           2.7794   -3.6873    4.4412 C.3     1  UNL1        0.0000
     26 C           0.5102   -3.7482    5.4782 C.3     1  UNL1        0.0000
     27 C          -0.8592   -3.0850    5.5647 C.3     1  UNL1        0.0000
     28 C          -1.4470   -2.8007    4.1529 C.3     1  UNL1        0.0000
     29 C          -2.6195   -1.8122    4.3347 C.3     1  UNL1        0.0000
     30 C          -1.9892   -4.0907    3.4993 C.3     1  UNL1        0.0000
     31 C          -0.3977   -2.2011    3.2237 C.ar    1  UNL1        0.0000
     32 N          -0.7986   -1.6729    2.0336 N.ar    1  UNL1        0.0000
     33 N           0.0713   -1.1106    1.1991 N.ar    1  UNL1        0.0000
     34 C           3.6868   -0.2184    0.6899 C.ar    1  UNL1        0.0000
     35 C           4.4202    0.4198   -0.3378 C.ar    1  UNL1        0.0000
     36 H          -4.6098    1.2061   -2.9268 H       1  UNL1        0.0000
     37 H          -5.1670    0.7821   -4.5762 H       1  UNL1        0.0000
     38 H          -4.3811   -0.4716   -3.5729 H       1  UNL1        0.0000
     39 H          -3.9622    1.6958   -6.0993 H       1  UNL1        0.0000
     40 H          -2.4748    2.5047   -5.6768 H       1  UNL1        0.0000
     41 H          -1.2931    0.1741   -6.2773 H       1  UNL1        0.0000
     42 H          -2.9281   -0.4534   -6.6159 H       1  UNL1        0.0000
     43 H          -3.2163    1.2422   -8.4375 H       1  UNL1        0.0000
     44 H          -1.7572    0.2138   -8.6993 H       1  UNL1        0.0000
     45 H          -1.5662    1.8989   -8.0804 H       1  UNL1        0.0000
     46 H          -0.4384    2.1925   -5.7013 H       1  UNL1        0.0000
     47 H           1.9271    2.6191   -5.6979 H       1  UNL1        0.0000
     48 H           4.1921    2.4383   -4.5159 H       1  UNL1        0.0000
     49 H           5.4837    1.6936   -2.5325 H       1  UNL1        0.0000
     50 H           2.8009   -1.0696    5.2718 H       1  UNL1        0.0000
     51 H           2.4371   -2.1205    6.6857 H       1  UNL1        0.0000
     52 H           1.1781   -1.0165    6.0234 H       1  UNL1        0.0000
     53 H           2.4944   -4.4906    3.7274 H       1  UNL1        0.0000
     54 H           3.2032   -4.1617    5.3529 H       1  UNL1        0.0000
     55 H           3.5807   -3.0780    3.9699 H       1  UNL1        0.0000
     56 H           0.3918   -4.6863    4.8966 H       1  UNL1        0.0000
     57 H           0.8697   -4.0418    6.4888 H       1  UNL1        0.0000
     58 H          -0.7365   -2.1393    6.1321 H       1  UNL1        0.0000
     59 H          -1.5671   -3.7153    6.1466 H       1  UNL1        0.0000
     60 H          -3.1035   -1.5808    3.3613 H       1  UNL1        0.0000
     61 H          -2.2613   -0.8567    4.7759 H       1  UNL1        0.0000
     62 H          -3.3932   -2.2413    5.0079 H       1  UNL1        0.0000
     63 H          -2.4560   -3.8647    2.5158 H       1  UNL1        0.0000
     64 H          -1.1823   -4.8304    3.3212 H       1  UNL1        0.0000
     65 H          -2.7613   -4.5619    4.1448 H       1  UNL1        0.0000
     66 H           4.1921   -0.5661    1.5819 H       1  UNL1        0.0000
     67 H           5.4883    0.5574   -0.2248 H       1  UNL1        0.0000
     68 EU         -0.5594   -0.1989   -0.8942 Eu      1  UNL1        0.0000
@<TRIPOS>BOND
     1     1     2    2
     2     2     3   am
     3     3     4    1
     4     3     5    1
     5     5     6    1
     6     6     7    1
     7     2     8    1
     8     8     9   ar
     9     9    10   ar
    10     8    11   ar
    11    11    12   ar
    12    12    13   ar
    13    10    13   ar
    14    13    14   ar
    15    14    15   ar
    16    15    16   ar
    17    16    17   ar
    18    12    17   ar
    19    17    18   ar
    20    18    19   ar
    21    19    20    1
    22    20    21   ar
    23    21    22   ar
    24    22    23    1
    25    23    24    1
    26    23    25    1
    27    23    26    1
    28    26    27    1
    29    27    28    1
    30    28    29    1
    31    28    30    1
    32    22    31   ar
    33    28    31    1
    34    31    32   ar
    35    32    33   ar
    36    20    33   ar
    37    19    34   ar
    38    34    35   ar
    39    16    35   ar
    40     4    36    1
    41     4    37    1
    42     4    38    1
    43     5    39    1
    44     5    40    1
    45     6    41    1
    46     6    42    1
    47     7    43    1
    48     7    44    1
    49     7    45    1
    50     9    46    1
    51    10    47    1
    52    14    48    1
    53    15    49    1
    54    24    50    1
    55    24    51    1
    56    24    52    1
    57    25    53    1
    58    25    54    1
    59    25    55    1
    60    26    56    1
    61    26    57    1
    62    27    58    1
    63    27    59    1
    64    29    60    1
    65    29    61    1
    66    29    62    1
    67    30    63    1
    68    30    64    1
    69    30    65    1
    70    34    66    1
    71    35    67    1
    72    68     1    1
    73    68    33    1
    74    68    18    1
    75    68    11    1
@<TRIPOS>MOLECULE
*****
 68 75 0 0 0
SMALL
GASTEIGER

@<TRIPOS>ATOM
      1 O          -2.1799    0.2406   -2.3897 O.2     1  UNL1        0.0000
      2 C          -1.9554    0.7922   -3.4781 C.2     1  UNL1        0.0000
      3 N          -3.0365    0.9809   -4.3244 N.am    1  UNL1        0.0000
      4 C          -4.3626    0.6077   -3.8318 C.3     1  UNL1        0.0000
      5 C          -2.9493    1.5071   -5.6820 C.3     1  UNL1        0.0000
      6 C          -2.3044    0.4687   -6.6202 C.3     1  UNL1        0.0000
      7 C          -2.2071    0.9962   -8.0479 C.3     1  UNL1        0.0000
      8 C          -0.5010    1.1845   -3.7338 C.ar    1  UNL1        0.0000
      9 C           0.0948    1.8543   -4.8401 C.ar    1  UNL1        0.0000
     10 C           1.4846    2.1123   -4.8483 C.ar    1  UNL1        0.0000
     11 N           0.3297    0.8459   -2.7265 N.ar    1  UNL1        0.0000
     12 C           1.6601    1.0779   -2.7018 C.ar    1  UNL1        0.0000
     13 C           2.2872    1.7186   -3.7664 C.ar    1  UNL1        0.0000
     14 C           3.6791    1.9411   -3.7016 C.ar    1  UNL1        0.0000
     15 C           4.4158    1.5166   -2.5707 C.ar    1  UNL1        0.0000
     16 C           3.7618    0.8712   -1.5014 C.ar    1  UNL1        0.0000
     17 C           2.3823    0.6651   -1.5918 C.ar    1  UNL1        0.0000
     18 N           1.7155    0.0566   -0.5940 N.ar    1  UNL1        0.0000
     19 C           2.2985   -0.3922    0.5336 C.ar    1  UNL1        0.0000
     20 C           1.3958   -1.0355    1.5073 C.ar    1  UNL1        0.0000
     21 N           1.8422   -1.5657    2.6705 N.ar    1  UNL1        0.0000
     22 C           0.9863   -2.1761    3.5372 C.ar    1  UNL1        0.0000
     23 C           1.5547   -2.8157    4.7991 C.3     1  UNL1        0.0000
     24 C           2.0147   -1.6902    5.7509 C.3     1  UNL1        0.0000
     25 C           2.7795   -3.6871    4.4427 C.3     1  UNL1        0.0000
     26 C           0.5104   -3.7468    5.4799 C.3     1  UNL1        0.0000
     27 C          -0.8592   -3.0836    5.5654 C.3     1  UNL1        0.0000
     28 C          -1.4468   -2.8013    4.1532 C.3     1  UNL1        0.0000
     29 C          -2.6198   -1.8131    4.3336 C.3     1  UNL1        0.0000
     30 C          -1.9883   -4.0923    3.5009 C.3     1  UNL1        0.0000
     31 C          -0.3976   -2.2022    3.2235 C.ar    1  UNL1        0.0000
     32 N          -0.7985   -1.6748    2.0330 N.ar    1  UNL1        0.0000
     33 N           0.0713   -1.1126    1.1983 N.ar    1  UNL1        0.0000
     34 C           3.6869   -0.2200    0.6894 C.ar    1  UNL1        0.0000
     35 C           4.4202    0.4182   -0.3381 C.ar    1  UNL1        0.0000
     36 H          -4.6099    1.2038   -2.9270 H       1  UNL1        0.0000
     37 H          -5.1670    0.7812   -4.5769 H       1  UNL1        0.0000
     38 H          -4.3809   -0.4732   -3.5747 H       1  UNL1        0.0000
     39 H          -3.9623    1.6971   -6.0988 H       1  UNL1        0.0000
     40 H          -2.4748    2.5053   -5.6755 H       1  UNL1        0.0000
     41 H          -1.2936    0.1751   -6.2790 H       1  UNL1        0.0000
     42 H          -2.9288   -0.4514   -6.6185 H       1  UNL1        0.0000
     43 H          -3.2165    1.2470   -8.4377 H       1  UNL1        0.0000
     44 H          -1.7576    0.2185   -8.7010 H       1  UNL1        0.0000
     45 H          -1.5662    1.9027   -8.0796 H       1  UNL1        0.0000
     46 H          -0.4384    2.1923   -5.7013 H       1  UNL1        0.0000
     47 H           1.9271    2.6189   -5.6975 H       1  UNL1        0.0000
     48 H           4.1919    2.4378   -4.5159 H       1  UNL1        0.0000
     49 H           5.4837    1.6926   -2.5326 H       1  UNL1        0.0000
     50 H           2.8010   -1.0685    5.2704 H       1  UNL1        0.0000
     51 H           2.4374   -2.1179    6.6855 H       1  UNL1        0.0000
     52 H           1.1783   -1.0146    6.0221 H       1  UNL1        0.0000
     53 H           2.4944   -4.4912    3.7298 H       1  UNL1        0.0000
     54 H           3.2033   -4.1605    5.3549 H       1  UNL1        0.0000
     55 H           3.5808   -3.0783    3.9706 H       1  UNL1        0.0000
     56 H           0.3921   -4.6857    4.8996 H       1  UNL1        0.0000
     57 H           0.8698   -4.0391    6.4909 H       1  UNL1        0.0000
     58 H          -0.7367   -2.1371    6.1315 H       1  UNL1        0.0000
     59 H          -1.5670   -3.7134    6.1481 H       1  UNL1        0.0000
     60 H          -3.1037   -1.5831    3.3599 H       1  UNL1        0.0000
     61 H          -2.2621   -0.8569    4.7738 H       1  UNL1        0.0000
     62 H          -3.3935   -2.2418    5.0072 H       1  UNL1        0.0000
     63 H          -2.4550   -3.8676    2.5171 H       1  UNL1        0.0000
     64 H          -1.1811   -4.8318    3.3238 H       1  UNL1        0.0000
     65 H          -2.7603   -4.5630    4.1468 H       1  UNL1        0.0000
     66 H           4.1921   -0.5679    1.5814 H       1  UNL1        0.0000
     67 H           5.4883    0.5561   -0.2250 H       1  UNL1        0.0000
     68 EU         -0.5593   -0.2007   -0.8949 Eu      1  UNL1        0.0000
@<TRIPOS>BOND
     1     1     2    2
     2     2     3   am
     3     3     4    1
     4     3     5    1
     5     5     6    1
     6     6     7    1
     7     2     8    1
     8     8     9   ar
     9     9    10   ar
    10     8    11   ar
    11    11    12   ar
    12    12    13   ar
    13    10    13   ar
    14    13    14   ar
    15    14    15   ar
    16    15    16   ar
    17    16    17   ar
    18    12    17   ar
    19    17    18   ar
    20    18    19   ar
    21    19    20    1
    22    20    21   ar
    23    21    22   ar
    24    22    23    1
    25    23    24    1
    26    23    25    1
    27    23    26    1
    28    26    27    1
    29    27    28    1
    30    28    29    1
    31    28    30    1
    32    22    31   ar
    33    28    31    1
    34    31    32   ar
    35    32    33   ar
    36    20    33   ar
    37    19    34   ar
    38    34    35   ar
    39    16    35   ar
    40     4    36    1
    41     4    37    1
    42     4    38    1
    43     5    39    1
    44     5    40    1
    45     6    41    1
    46     6    42    1
    47     7    43    1
    48     7    44    1
    49     7    45    1
    50     9    46    1
    51    10    47    1
    52    14    48    1
    53    15    49    1
    54    24    50    1
    55    24    51    1
    56    24    52    1
    57    25    53    1
    58    25    54    1
    59    25    55    1
    60    26    56    1
    61    26    57    1
    62    27    58    1
    63    27    59    1
    64    29    60    1
    65    29    61    1
    66    29    62    1
    67    30    63    1
    68    30    64    1
    69    30    65    1
    70    34    66    1
    71    35    67    1
    72    68     1    1
    73    68    33    1
    74    68    18    1
    75    68    11    1
@<TRIPOS>MOLECULE
*****
 68 75 0 0 0
SMALL
GASTEIGER

@<TRIPOS>ATOM
      1 O          -2.1799    0.2381   -2.3908 O.2     1  UNL1        0.0000
      2 C          -1.9554    0.7902   -3.4789 C.2     1  UNL1        0.0000
      3 N          -3.0365    0.9797   -4.3251 N.am    1  UNL1        0.0000
      4 C          -4.3625    0.6054   -3.8331 C.3     1  UNL1        0.0000
      5 C          -2.9495    1.5083   -5.6817 C.3     1  UNL1        0.0000
      6 C          -2.3051    0.4716   -6.6222 C.3     1  UNL1        0.0000
      7 C          -2.2075    1.0026   -8.0488 C.3     1  UNL1        0.0000
      8 C          -0.5012    1.1830   -3.7344 C.ar    1  UNL1        0.0000
      9 C           0.0948    1.8533   -4.8402 C.ar    1  UNL1        0.0000
     10 C           1.4845    2.1116   -4.8483 C.ar    1  UNL1        0.0000
     11 N           0.3296    0.8438   -2.7270 N.ar    1  UNL1        0.0000
     12 C           1.6599    1.0764   -2.7022 C.ar    1  UNL1        0.0000
     13 C           2.2871    1.7177   -3.7665 C.ar    1  UNL1        0.0000
     14 C           3.6788    1.9402   -3.7014 C.ar    1  UNL1        0.0000
     15 C           4.4156    1.5154   -2.5707 C.ar    1  UNL1        0.0000
     16 C           3.7614    0.8695   -1.5017 C.ar    1  UNL1        0.0000
     17 C           2.3821    0.6634   -1.5923 C.ar    1  UNL1        0.0000
     18 N           1.7153    0.0543   -0.5947 N.ar    1  UNL1        0.0000
     19 C           2.2985   -0.3946    0.5328 C.ar    1  UNL1        0.0000
     20 C           1.3959   -1.0380    1.5064 C.ar    1  UNL1        0.0000
     21 N           1.8424   -1.5674    2.6700 N.ar    1  UNL1        0.0000
     22 C           0.9865   -2.1773    3.5372 C.ar    1  UNL1        0.0000
     23 C           1.5549   -2.8149    4.8001 C.3     1  UNL1        0.0000
     24 C           2.0149   -1.6877    5.7499 C.3     1  UNL1        0.0000
     25 C           2.7796   -3.6869    4.4451 C.3     1  UNL1        0.0000
     26 C           0.5106   -3.7446    5.4826 C.3     1  UNL1        0.0000
     27 C          -0.8591   -3.0816    5.5665 C.3     1  UNL1        0.0000
     28 C          -1.4465   -2.8023    4.1536 C.3     1  UNL1        0.0000
     29 C          -2.6203   -1.8146    4.3319 C.3     1  UNL1        0.0000
     30 C          -1.9870   -4.0948    3.5035 C.3     1  UNL1        0.0000
     31 C          -0.3973   -2.2042    3.2232 C.ar    1  UNL1        0.0000
     32 N          -0.7983   -1.6777    2.0323 N.ar    1  UNL1        0.0000
     33 N           0.0715   -1.1157    1.1974 N.ar    1  UNL1        0.0000
     34 C           3.6868   -0.2222    0.6888 C.ar    1  UNL1        0.0000
     35 C           4.4200    0.4164   -0.3387 C.ar    1  UNL1        0.0000
     36 H          -4.6099    1.2000   -2.9274 H       1  UNL1        0.0000
     37 H          -5.1669    0.7797   -4.5779 H       1  UNL1        0.0000
     38 H          -4.3804   -0.4760   -3.5777 H       1  UNL1        0.0000
     39 H          -3.9626    1.6994   -6.0980 H       1  UNL1        0.0000
     40 H          -2.4748    2.5064   -5.6734 H       1  UNL1        0.0000
     41 H          -1.2944    0.1768   -6.2818 H       1  UNL1        0.0000
     42 H          -2.9299   -0.4481   -6.6227 H       1  UNL1        0.0000
     43 H          -3.2168    1.2548   -8.4380 H       1  UNL1        0.0000
     44 H          -1.7585    0.2262   -8.7037 H       1  UNL1        0.0000
     45 H          -1.5662    1.9088   -8.0783 H       1  UNL1        0.0000
     46 H          -0.4383    2.1915   -5.7014 H       1  UNL1        0.0000
     47 H           1.9270    2.6187   -5.6972 H       1  UNL1        0.0000
     48 H           4.1918    2.4373   -4.5155 H       1  UNL1        0.0000
     49 H           5.4834    1.6916   -2.5325 H       1  UNL1        0.0000
     50 H           2.8012   -1.0668    5.2682 H       1  UNL1        0.0000
     51 H           2.4377   -2.1137    6.6852 H       1  UNL1        0.0000
     52 H           1.1785   -1.0116    6.0199 H       1  UNL1        0.0000
     53 H           2.4944   -4.4923    3.7337 H       1  UNL1        0.0000
     54 H           3.2036   -4.1586    5.3581 H       1  UNL1        0.0000
     55 H           3.5808   -3.0789    3.9718 H       1  UNL1        0.0000
     56 H           0.3926   -4.6848    4.9044 H       1  UNL1        0.0000
     57 H           0.8699   -4.0347    6.4943 H       1  UNL1        0.0000
     58 H          -0.7369   -2.1338    6.1306 H       1  UNL1        0.0000
     59 H          -1.5669   -3.7102    6.1503 H       1  UNL1        0.0000
     60 H          -3.1041   -1.5868    3.3577 H       1  UNL1        0.0000
     61 H          -2.2634   -0.8573    4.7704 H       1  UNL1        0.0000
     62 H          -3.3938   -2.2426    5.0060 H       1  UNL1        0.0000
     63 H          -2.4536   -3.8722    2.5191 H       1  UNL1        0.0000
     64 H          -1.1792   -4.8341    3.3279 H       1  UNL1        0.0000
     65 H          -2.7588   -4.5649    4.1501 H       1  UNL1        0.0000
     66 H           4.1919   -0.5700    1.5807 H       1  UNL1        0.0000
     67 H           5.4881    0.5543   -0.2255 H       1  UNL1        0.0000
     68 EU         -0.5594   -0.2035   -0.8959 Eu      1  UNL1        0.0000
@<TRIPOS>BOND
     1     1     2    2
     2     2     3   am
     3     3     4    1
     4     3     5    1
     5     5     6    1
     6     6     7    1
     7     2     8    1
     8     8     9   ar
     9     9    10   ar
    10     8    11   ar
    11    11    12   ar
    12    12    13   ar
    13    10    13   ar
    14    13    14   ar
    15    14    15   ar
    16    15    16   ar
    17    16    17   ar
    18    12    17   ar
    19    17    18   ar
    20    18    19   ar
    21    19    20    1
    22    20    21   ar
    23    21    22   ar
    24    22    23    1
    25    23    24    1
    26    23    25    1
    27    23    26    1
    28    26    27    1
    29    27    28    1
    30    28    29    1
    31    28    30    1
    32    22    31   ar
    33    28    31    1
    34    31    32   ar
    35    32    33   ar
    36    20    33   ar
    37    19    34   ar
    38    34    35   ar
    39    16    35   ar
    40     4    36    1
    41     4    37    1
    42     4    38    1
    43     5    39    1
    44     5    40    1
    45     6    41    1
    46     6    42    1
    47     7    43    1
    48     7    44    1
    49     7    45    1
    50     9    46    1
    51    10    47    1
    52    14    48    1
    53    15    49    1
    54    24    50    1
    55    24    51    1
    56    24    52    1
    57    25    53    1
    58    25    54    1
    59    25    55    1
    60    26    56    1
    61    26    57    1
    62    27    58    1
    63    27    59    1
    64    29    60    1
    65    29    61    1
    66    29    62    1
    67    30    63    1
    68    30    64    1
    69    30    65    1
    70    34    66    1
    71    35    67    1
    72    68     1    1
    73    68    33    1
    74    68    18    1
    75    68    11    1
@<TRIPOS>MOLECULE
*****
 68 75 0 0 0
SMALL
GASTEIGER

@<TRIPOS>ATOM
      1 O          -2.1798    0.2361   -2.3917 O.2     1  UNL1        0.0000
      2 C          -1.9553    0.7887   -3.4796 C.2     1  UNL1        0.0000
      3 N          -3.0365    0.9788   -4.3256 N.am    1  UNL1        0.0000
      4 C          -4.3624    0.6037   -3.8340 C.3     1  UNL1        0.0000
      5 C          -2.9496    1.5091   -5.6816 C.3     1  UNL1        0.0000
      6 C          -2.3056    0.4737   -6.6237 C.3     1  UNL1        0.0000
      7 C          -2.2079    1.0071   -8.0494 C.3     1  UNL1        0.0000
      8 C          -0.5009    1.1817   -3.7348 C.ar    1  UNL1        0.0000
      9 C           0.0948    1.8524   -4.8404 C.ar    1  UNL1        0.0000
     10 C           1.4845    2.1107   -4.8483 C.ar    1  UNL1        0.0000
     11 N           0.3295    0.8424   -2.7275 N.ar    1  UNL1        0.0000
     12 C           1.6601    1.0750   -2.7023 C.ar    1  UNL1        0.0000
     13 C           2.2870    1.7166   -3.7665 C.ar    1  UNL1        0.0000
     14 C           3.6789    1.9393   -3.7015 C.ar    1  UNL1        0.0000
     15 C           4.4156    1.5144   -2.5707 C.ar    1  UNL1        0.0000
     16 C           3.7615    0.8683   -1.5019 C.ar    1  UNL1        0.0000
     17 C           2.3820    0.6618   -1.5927 C.ar    1  UNL1        0.0000
     18 N           1.7153    0.0526   -0.5951 N.ar    1  UNL1        0.0000
     19 C           2.2985   -0.3963    0.5324 C.ar    1  UNL1        0.0000
     20 C           1.3959   -1.0398    1.5059 C.ar    1  UNL1        0.0000
     21 N           1.8424   -1.5685    2.6699 N.ar    1  UNL1        0.0000
     22 C           0.9866   -2.1781    3.5373 C.ar    1  UNL1        0.0000
     23 C           1.5550   -2.8142    4.8009 C.3     1  UNL1        0.0000
     24 C           2.0150   -1.6858    5.7493 C.3     1  UNL1        0.0000
     25 C           2.7797   -3.6866    4.4469 C.3     1  UNL1        0.0000
     26 C           0.5107   -3.7431    5.4847 C.3     1  UNL1        0.0000
     27 C          -0.8590   -3.0801    5.5674 C.3     1  UNL1        0.0000
     28 C          -1.4463   -2.8031    4.1539 C.3     1  UNL1        0.0000
     29 C          -2.6206   -1.8157    4.3306 C.3     1  UNL1        0.0000
     30 C          -1.9860   -4.0967    3.5053 C.3     1  UNL1        0.0000
     31 C          -0.3972   -2.2055    3.2231 C.ar    1  UNL1        0.0000
     32 N          -0.7982   -1.6798    2.0318 N.ar    1  UNL1        0.0000
     33 N           0.0715   -1.1177    1.1969 N.ar    1  UNL1        0.0000
     34 C           3.6868   -0.2238    0.6884 C.ar    1  UNL1        0.0000
     35 C           4.4200    0.4151   -0.3389 C.ar    1  UNL1        0.0000
     36 H          -4.6100    1.1973   -2.9277 H       1  UNL1        0.0000
     37 H          -5.1668    0.7787   -4.5787 H       1  UNL1        0.0000
     38 H          -4.3801   -0.4779   -3.5797 H       1  UNL1        0.0000
     39 H          -3.9627    1.7009   -6.0974 H       1  UNL1        0.0000
     40 H          -2.4747    2.5071   -5.6720 H       1  UNL1        0.0000
     41 H          -1.2950    0.1779   -6.2837 H       1  UNL1        0.0000
     42 H          -2.9307   -0.4459   -6.6256 H       1  UNL1        0.0000
     43 H          -3.2171    1.2604   -8.4381 H       1  UNL1        0.0000
     44 H          -1.7591    0.2318   -8.7057 H       1  UNL1        0.0000
     45 H          -1.5663    1.9131   -8.0773 H       1  UNL1        0.0000
     46 H          -0.4382    2.1910   -5.7015 H       1  UNL1        0.0000
     47 H           1.9270    2.6181   -5.6971 H       1  UNL1        0.0000
     48 H           4.1917    2.4366   -4.5154 H       1  UNL1        0.0000
     49 H           5.4834    1.6908   -2.5325 H       1  UNL1        0.0000
     50 H           2.8013   -1.0655    5.2668 H       1  UNL1        0.0000
     51 H           2.4380   -2.1106    6.6851 H       1  UNL1        0.0000
     52 H           1.1786   -1.0094    6.0185 H       1  UNL1        0.0000
     53 H           2.4945   -4.4929    3.7366 H       1  UNL1        0.0000
     54 H           3.2037   -4.1572    5.3605 H       1  UNL1        0.0000
     55 H           3.5809   -3.0793    3.9728 H       1  UNL1        0.0000
     56 H           0.3929   -4.6842    4.9079 H       1  UNL1        0.0000
     57 H           0.8700   -4.0316    6.4969 H       1  UNL1        0.0000
     58 H          -0.7371   -2.1315    6.1301 H       1  UNL1        0.0000
     59 H          -1.5668   -3.7081    6.1520 H       1  UNL1        0.0000
     60 H          -3.1044   -1.5895    3.3560 H       1  UNL1        0.0000
     61 H          -2.2643   -0.8576    4.7679 H       1  UNL1        0.0000
     62 H          -3.3941   -2.2432    5.0052 H       1  UNL1        0.0000
     63 H          -2.4524   -3.8756    2.5206 H       1  UNL1        0.0000
     64 H          -1.1778   -4.8358    3.3309 H       1  UNL1        0.0000
     65 H          -2.7577   -4.5663    4.1524 H       1  UNL1        0.0000
     66 H           4.1919   -0.5717    1.5803 H       1  UNL1        0.0000
     67 H           5.4881    0.5530   -0.2257 H       1  UNL1        0.0000
     68 EU         -0.5594   -0.2055   -0.8965 Eu      1  UNL1        0.0000
@<TRIPOS>BOND
     1     1     2    2
     2     2     3   am
     3     3     4    1
     4     3     5    1
     5     5     6    1
     6     6     7    1
     7     2     8    1
     8     8     9   ar
     9     9    10   ar
    10     8    11   ar
    11    11    12   ar
    12    12    13   ar
    13    10    13   ar
    14    13    14   ar
    15    14    15   ar
    16    15    16   ar
    17    16    17   ar
    18    12    17   ar
    19    17    18   ar
    20    18    19   ar
    21    19    20    1
    22    20    21   ar
    23    21    22   ar
    24    22    23    1
    25    23    24    1
    26    23    25    1
    27    23    26    1
    28    26    27    1
    29    27    28    1
    30    28    29    1
    31    28    30    1
    32    22    31   ar
    33    28    31    1
    34    31    32   ar
    35    32    33   ar
    36    20    33   ar
    37    19    34   ar
    38    34    35   ar
    39    16    35   ar
    40     4    36    1
    41     4    37    1
    42     4    38    1
    43     5    39    1
    44     5    40    1
    45     6    41    1
    46     6    42    1
    47     7    43    1
    48     7    44    1
    49     7    45    1
    50     9    46    1
    51    10    47    1
    52    14    48    1
    53    15    49    1
    54    24    50    1
    55    24    51    1
    56    24    52    1
    57    25    53    1
    58    25    54    1
    59    25    55    1
    60    26    56    1
    61    26    57    1
    62    27    58    1
    63    27    59    1
    64    29    60    1
    65    29    61    1
    66    29    62    1
    67    30    63    1
    68    30    64    1
    69    30    65    1
    70    34    66    1
    71    35    67    1
    72    68     1    1
    73    68    33    1
    74    68    18    1
    75    68    11    1
@<TRIPOS>MOLECULE
*****
 68 75 0 0 0
SMALL
GASTEIGER

@<TRIPOS>ATOM
      1 O          -2.1797    0.2359   -2.3919 O.2     1  UNL1        0.0000
      2 C          -1.9552    0.7884   -3.4798 C.2     1  UNL1        0.0000
      3 N          -3.0364    0.9785   -4.3257 N.am    1  UNL1        0.0000
      4 C          -4.3624    0.6035   -3.8340 C.3     1  UNL1        0.0000
      5 C          -2.9496    1.5092   -5.6814 C.3     1  UNL1        0.0000
      6 C          -2.3057    0.4741   -6.6240 C.3     1  UNL1        0.0000
      7 C          -2.2079    1.0077   -8.0495 C.3     1  UNL1        0.0000
      8 C          -0.5009    1.1817   -3.7347 C.ar    1  UNL1        0.0000
      9 C           0.0948    1.8521   -4.8406 C.ar    1  UNL1        0.0000
     10 C           1.4846    2.1106   -4.8483 C.ar    1  UNL1        0.0000
     11 N           0.3296    0.8422   -2.7276 N.ar    1  UNL1        0.0000
     12 C           1.6603    1.0747   -2.7024 C.ar    1  UNL1        0.0000
     13 C           2.2870    1.7165   -3.7666 C.ar    1  UNL1        0.0000
     14 C           3.6788    1.9391   -3.7014 C.ar    1  UNL1        0.0000
     15 C           4.4156    1.5143   -2.5707 C.ar    1  UNL1        0.0000
     16 C           3.7615    0.8680   -1.5020 C.ar    1  UNL1        0.0000
     17 C           2.3820    0.6618   -1.5927 C.ar    1  UNL1        0.0000
     18 N           1.7152    0.0521   -0.5955 N.ar    1  UNL1        0.0000
     19 C           2.2985   -0.3965    0.5323 C.ar    1  UNL1        0.0000
     20 C           1.3957   -1.0401    1.5058 C.ar    1  UNL1        0.0000
     21 N           1.8424   -1.5686    2.6698 N.ar    1  UNL1        0.0000
     22 C           0.9866   -2.1782    3.5373 C.ar    1  UNL1        0.0000
     23 C           1.5550   -2.8141    4.8010 C.3     1  UNL1        0.0000
     24 C           2.0151   -1.6855    5.7492 C.3     1  UNL1        0.0000
     25 C           2.7798   -3.6866    4.4472 C.3     1  UNL1        0.0000
     26 C           0.5108   -3.7428    5.4850 C.3     1  UNL1        0.0000
     27 C          -0.8590   -3.0799    5.5675 C.3     1  UNL1        0.0000
     28 C          -1.4463   -2.8032    4.1540 C.3     1  UNL1        0.0000
     29 C          -2.6207   -1.8159    4.3304 C.3     1  UNL1        0.0000
     30 C          -1.9858   -4.0969    3.5056 C.3     1  UNL1        0.0000
     31 C          -0.3972   -2.2056    3.2231 C.ar    1  UNL1        0.0000
     32 N          -0.7981   -1.6801    2.0318 N.ar    1  UNL1        0.0000
     33 N           0.0715   -1.1179    1.1968 N.ar    1  UNL1        0.0000
     34 C           3.6864   -0.2241    0.6883 C.ar    1  UNL1        0.0000
     35 C           4.4201    0.4149   -0.3389 C.ar    1  UNL1        0.0000
     36 H          -4.6100    1.1968   -2.9277 H       1  UNL1        0.0000
     37 H          -5.1668    0.7785   -4.5788 H       1  UNL1        0.0000
     38 H          -4.3800   -0.4782   -3.5801 H       1  UNL1        0.0000
     39 H          -3.9627    1.7012   -6.0973 H       1  UNL1        0.0000
     40 H          -2.4746    2.5073   -5.6718 H       1  UNL1        0.0000
     41 H          -1.2951    0.1781   -6.2840 H       1  UNL1        0.0000
     42 H          -2.9309   -0.4455   -6.6261 H       1  UNL1        0.0000
     43 H          -3.2171    1.2613   -8.4381 H       1  UNL1        0.0000
     44 H          -1.7592    0.2326   -8.7060 H       1  UNL1        0.0000
     45 H          -1.5663    1.9138   -8.0772 H       1  UNL1        0.0000
     46 H          -0.4382    2.1909   -5.7014 H       1  UNL1        0.0000
     47 H           1.9270    2.6181   -5.6970 H       1  UNL1        0.0000
     48 H           4.1918    2.4365   -4.5154 H       1  UNL1        0.0000
     49 H           5.4834    1.6906   -2.5324 H       1  UNL1        0.0000
     50 H           2.8013   -1.0653    5.2666 H       1  UNL1        0.0000
     51 H           2.4380   -2.1101    6.6851 H       1  UNL1        0.0000
     52 H           1.1786   -1.0091    6.0183 H       1  UNL1        0.0000
     53 H           2.4945   -4.4930    3.7370 H       1  UNL1        0.0000
     54 H           3.2038   -4.1569    5.3609 H       1  UNL1        0.0000
     55 H           3.5809   -3.0793    3.9730 H       1  UNL1        0.0000
     56 H           0.3930   -4.6841    4.9084 H       1  UNL1        0.0000
     57 H           0.8700   -4.0311    6.4972 H       1  UNL1        0.0000
     58 H          -0.7372   -2.1311    6.1300 H       1  UNL1        0.0000
     59 H          -1.5668   -3.7077    6.1522 H       1  UNL1        0.0000
     60 H          -3.1044   -1.5899    3.3558 H       1  UNL1        0.0000
     61 H          -2.2645   -0.8577    4.7676 H       1  UNL1        0.0000
     62 H          -3.3941   -2.2433    5.0051 H       1  UNL1        0.0000
     63 H          -2.4522   -3.8761    2.5209 H       1  UNL1        0.0000
     64 H          -1.1776   -4.8360    3.3314 H       1  UNL1        0.0000
     65 H          -2.7575   -4.5665    4.1528 H       1  UNL1        0.0000
     66 H           4.1919   -0.5719    1.5803 H       1  UNL1        0.0000
     67 H           5.4881    0.5528   -0.2257 H       1  UNL1        0.0000
     68 EU         -0.5594   -0.2057   -0.8966 Eu      1  UNL1        0.0000
@<TRIPOS>BOND
     1     1     2    2
     2     2     3   am
     3     3     4    1
     4     3     5    1
     5     5     6    1
     6     6     7    1
     7     2     8    1
     8     8     9   ar
     9     9    10   ar
    10     8    11   ar
    11    11    12   ar
    12    12    13   ar
    13    10    13   ar
    14    13    14   ar
    15    14    15   ar
    16    15    16   ar
    17    16    17   ar
    18    12    17   ar
    19    17    18   ar
    20    18    19   ar
    21    19    20    1
    22    20    21   ar
    23    21    22   ar
    24    22    23    1
    25    23    24    1
    26    23    25    1
    27    23    26    1
    28    26    27    1
    29    27    28    1
    30    28    29    1
    31    28    30    1
    32    22    31   ar
    33    28    31    1
    34    31    32   ar
    35    32    33   ar
    36    20    33   ar
    37    19    34   ar
    38    34    35   ar
    39    16    35   ar
    40     4    36    1
    41     4    37    1
    42     4    38    1
    43     5    39    1
    44     5    40    1
    45     6    41    1
    46     6    42    1
    47     7    43    1
    48     7    44    1
    49     7    45    1
    50     9    46    1
    51    10    47    1
    52    14    48    1
    53    15    49    1
    54    24    50    1
    55    24    51    1
    56    24    52    1
    57    25    53    1
    58    25    54    1
    59    25    55    1
    60    26    56    1
    61    26    57    1
    62    27    58    1
    63    27    59    1
    64    29    60    1
    65    29    61    1
    66    29    62    1
    67    30    63    1
    68    30    64    1
    69    30    65    1
    70    34    66    1
    71    35    67    1
    72    68     1    1
    73    68    33    1
    74    68    18    1
    75    68    11    1
@<TRIPOS>MOLECULE
*****
 68 75 0 0 0
SMALL
GASTEIGER

@<TRIPOS>ATOM
      1 O          -2.1797    0.2358   -2.3919 O.2     1  UNL1        0.0000
      2 C          -1.9553    0.7885   -3.4796 C.2     1  UNL1        0.0000
      3 N          -3.0364    0.9787   -4.3257 N.am    1  UNL1        0.0000
      4 C          -4.3623    0.6034   -3.8341 C.3     1  UNL1        0.0000
      5 C          -2.9496    1.5092   -5.6815 C.3     1  UNL1        0.0000
      6 C          -2.3057    0.4742   -6.6241 C.3     1  UNL1        0.0000
      7 C          -2.2080    1.0081   -8.0495 C.3     1  UNL1        0.0000
      8 C          -0.5009    1.1814   -3.7351 C.ar    1  UNL1        0.0000
      9 C           0.0949    1.8522   -4.8403 C.ar    1  UNL1        0.0000
     10 C           1.4845    2.1106   -4.8483 C.ar    1  UNL1        0.0000
     11 N           0.3297    0.8421   -2.7275 N.ar    1  UNL1        0.0000
     12 C           1.6603    1.0747   -2.7026 C.ar    1  UNL1        0.0000
     13 C           2.2871    1.7164   -3.7665 C.ar    1  UNL1        0.0000
     14 C           3.6789    1.9391   -3.7015 C.ar    1  UNL1        0.0000
     15 C           4.4156    1.5142   -2.5707 C.ar    1  UNL1        0.0000
     16 C           3.7615    0.8679   -1.5020 C.ar    1  UNL1        0.0000
     17 C           2.3821    0.6616   -1.5928 C.ar    1  UNL1        0.0000
     18 N           1.7153    0.0522   -0.5952 N.ar    1  UNL1        0.0000
     19 C           2.2983   -0.3966    0.5321 C.ar    1  UNL1        0.0000
     20 C           1.3958   -1.0402    1.5058 C.ar    1  UNL1        0.0000
     21 N           1.8423   -1.5687    2.6698 N.ar    1  UNL1        0.0000
     22 C           0.9866   -2.1782    3.5373 C.ar    1  UNL1        0.0000
     23 C           1.5550   -2.8140    4.8011 C.3     1  UNL1        0.0000
     24 C           2.0151   -1.6854    5.7491 C.3     1  UNL1        0.0000
     25 C           2.7798   -3.6866    4.4473 C.3     1  UNL1        0.0000
     26 C           0.5108   -3.7427    5.4851 C.3     1  UNL1        0.0000
     27 C          -0.8590   -3.0798    5.5676 C.3     1  UNL1        0.0000
     28 C          -1.4463   -2.8032    4.1540 C.3     1  UNL1        0.0000
     29 C          -2.6207   -1.8160    4.3304 C.3     1  UNL1        0.0000
     30 C          -1.9857   -4.0971    3.5058 C.3     1  UNL1        0.0000
     31 C          -0.3972   -2.2058    3.2231 C.ar    1  UNL1        0.0000
     32 N          -0.7981   -1.6802    2.0317 N.ar    1  UNL1        0.0000
     33 N           0.0715   -1.1182    1.1967 N.ar    1  UNL1        0.0000
     34 C           3.6867   -0.2242    0.6883 C.ar    1  UNL1        0.0000
     35 C           4.4200    0.4148   -0.3390 C.ar    1  UNL1        0.0000
     36 H          -4.6100    1.1966   -2.9277 H       1  UNL1        0.0000
     37 H          -5.1668    0.7785   -4.5788 H       1  UNL1        0.0000
     38 H          -4.3800   -0.4784   -3.5802 H       1  UNL1        0.0000
     39 H          -3.9628    1.7013   -6.0973 H       1  UNL1        0.0000
     40 H          -2.4747    2.5073   -5.6716 H       1  UNL1        0.0000
     41 H          -1.2952    0.1781   -6.2842 H       1  UNL1        0.0000
     42 H          -2.9309   -0.4453   -6.6263 H       1  UNL1        0.0000
     43 H          -3.2172    1.2617   -8.4381 H       1  UNL1        0.0000
     44 H          -1.7592    0.2330   -8.7062 H       1  UNL1        0.0000
     45 H          -1.5663    1.9141   -8.0771 H       1  UNL1        0.0000
     46 H          -0.4382    2.1908   -5.7015 H       1  UNL1        0.0000
     47 H           1.9270    2.6180   -5.6970 H       1  UNL1        0.0000
     48 H           4.1917    2.4365   -4.5153 H       1  UNL1        0.0000
     49 H           5.4834    1.6906   -2.5324 H       1  UNL1        0.0000
     50 H           2.8013   -1.0652    5.2664 H       1  UNL1        0.0000
     51 H           2.4380   -2.1099    6.6850 H       1  UNL1        0.0000
     52 H           1.1786   -1.0090    6.0182 H       1  UNL1        0.0000
     53 H           2.4945   -4.4931    3.7372 H       1  UNL1        0.0000
     54 H           3.2038   -4.1568    5.3610 H       1  UNL1        0.0000
     55 H           3.5809   -3.0794    3.9731 H       1  UNL1        0.0000
     56 H           0.3930   -4.6840    4.9086 H       1  UNL1        0.0000
     57 H           0.8700   -4.0309    6.4974 H       1  UNL1        0.0000
     58 H          -0.7372   -2.1309    6.1299 H       1  UNL1        0.0000
     59 H          -1.5668   -3.7076    6.1524 H       1  UNL1        0.0000
     60 H          -3.1045   -1.5901    3.3556 H       1  UNL1        0.0000
     61 H          -2.2646   -0.8577    4.7674 H       1  UNL1        0.0000
     62 H          -3.3941   -2.2433    5.0050 H       1  UNL1        0.0000
     63 H          -2.4522   -3.8764    2.5210 H       1  UNL1        0.0000
     64 H          -1.1775   -4.8362    3.3316 H       1  UNL1        0.0000
     65 H          -2.7574   -4.5666    4.1529 H       1  UNL1        0.0000
     66 H           4.1918   -0.5720    1.5802 H       1  UNL1        0.0000
     67 H           5.4881    0.5528   -0.2256 H       1  UNL1        0.0000
     68 EU         -0.5594   -0.2059   -0.8967 Eu      1  UNL1        0.0000
@<TRIPOS>BOND
     1     1     2    2
     2     2     3   am
     3     3     4    1
     4     3     5    1
     5     5     6    1
     6     6     7    1
     7     2     8    1
     8     8     9   ar
     9     9    10   ar
    10     8    11   ar
    11    11    12   ar
    12    12    13   ar
    13    10    13   ar
    14    13    14   ar
    15    14    15   ar
    16    15    16   ar
    17    16    17   ar
    18    12    17   ar
    19    17    18   ar
    20    18    19   ar
    21    19    20    1
    22    20    21   ar
    23    21    22   ar
    24    22    23    1
    25    23    24    1
    26    23    25    1
    27    23    26    1
    28    26    27    1
    29    27    28    1
    30    28    29    1
    31    28    30    1
    32    22    31   ar
    33    28    31    1
    34    31    32   ar
    35    32    33   ar
    36    20    33   ar
    37    19    34   ar
    38    34    35   ar
    39    16    35   ar
    40     4    36    1
    41     4    37    1
    42     4    38    1
    43     5    39    1
    44     5    40    1
    45     6    41    1
    46     6    42    1
    47     7    43    1
    48     7    44    1
    49     7    45    1
    50     9    46    1
    51    10    47    1
    52    14    48    1
    53    15    49    1
    54    24    50    1
    55    24    51    1
    56    24    52    1
    57    25    53    1
    58    25    54    1
    59    25    55    1
    60    26    56    1
    61    26    57    1
    62    27    58    1
    63    27    59    1
    64    29    60    1
    65    29    61    1
    66    29    62    1
    67    30    63    1
    68    30    64    1
    69    30    65    1
    70    34    66    1
    71    35    67    1
    72    68     1    1
    73    68    33    1
    74    68    18    1
    75    68    11    1
